<nodes>
	<node id="248454004" x="413525.0914" y="4570311.1828" z="0.0000" type="priority" />
	<node id="248454001" x="413613.4203" y="4570408.9301" z="0.0000" type="priority" />
	<node id="248454002" x="413735.2625" y="4570560.0319" z="0.0000" type="priority" />
	<node id="248454000" x="413664.3004" y="4570374.8495" z="0.0000" type="priority" />
	<node id="4590642059" x="413672.1550" y="4569111.3695" z="0.0000" type="priority" />
	<node id="246781864" x="414298.1086" y="4569144.6399" z="0.0000" type="priority" />
	<node id="213678047" x="415556.0348" y="4568950.1468" z="0.0000" type="priority" />
	<node id="248454007" x="413377.3974" y="4570145.0476" z="0.0000" type="priority" />
	<node id="213678048" x="415572.9224" y="4568960.8764" z="0.0000" type="priority" />
	<node id="248454008" x="413080.5461" y="4570154.5962" z="0.0000" type="priority" />
	<node id="2307714632" x="413532.0362" y="4569352.3314" z="0.0000" type="priority" />
	<node id="213678049" x="415561.7035" y="4568977.3394" z="0.0000" type="priority" />
	<node id="248454005" x="413584.2200" y="4570382.6514" z="0.0000" type="priority" />
	<node id="246781867" x="414290.6669" y="4568978.0123" z="0.0000" type="priority" />
	<node id="1771967355" x="414054.5246" y="4570854.9852" z="0.0000" type="priority" />
	<node id="1771967354" x="414201.3366" y="4570273.1387" z="0.0000" type="priority" />
	<node id="4062136090" x="413551.3843" y="4569309.8091" z="0.0000" type="priority" />
	<node id="2309309673" x="414184.2499" y="4568751.5171" z="0.0000" type="priority" />
	<node id="2309309674" x="414181.9153" y="4568678.5852" z="0.0000" type="priority" />
	<node id="215689236" x="415967.7660" y="4568842.2200" z="0.0000" type="priority" />
	<node id="215689235" x="415968.2521" y="4568940.1555" z="0.0000" type="priority" />
	<node id="247042922" x="414720.4673" y="4571169.5494" z="0.0000" type="priority" />
	<node id="215584171" x="415143.5272" y="4568979.7621" z="0.0000" type="priority" />
	<node id="247042923" x="414639.4247" y="4571123.9556" z="0.0000" type="priority" />
	<node id="215189725" x="414184.2918" y="4569546.8978" z="0.0000" type="priority" />
	<node id="215584170" x="415165.1193" y="4568981.5200" z="0.0000" type="priority" />
	<node id="215189726" x="414165.4180" y="4569592.2441" z="0.0000" type="priority" />
	<node id="215189723" x="414207.3693" y="4569427.5432" z="0.0000" type="priority" />
	<node id="1771967366" x="414211.4268" y="4570277.1611" z="0.0000" type="priority" />
	<node id="215189724" x="414204.3140" y="4569453.3054" z="0.0000" type="priority" />
	<node id="214984438" x="413667.0137" y="4569124.9765" z="0.0000" type="priority" />
	<node id="215189722" x="414204.5371" y="4569364.2658" z="0.0000" type="priority" />
	<node id="1771967369" x="414110.5670" y="4570777.3106" z="0.0000" type="priority" />
	<node id="214980073" x="413655.2145" y="4569162.0460" z="0.0000" type="priority" />
	<node id="1771967364" x="414056.5745" y="4570833.5539" z="0.0000" type="priority" />
	<node id="1771967362" x="414108.4348" y="4570777.6023" z="0.0000" type="priority" />
	<node id="5118313739" x="414905.0688" y="4569622.3482" z="0.0000" type="priority" />
	<node id="2592971657" x="413737.4783" y="4569636.7343" z="0.0000" type="priority" />
	<node id="2307714618" x="414019.3549" y="4570030.9493" z="0.0000" type="priority" />
	<node id="2307714616" x="414006.9120" y="4570061.7526" z="0.0000" type="priority" />
	<node id="2308421789" x="413049.4056" y="4568939.6010" z="0.0000" type="priority" />
	<node id="211232064" x="413950.7759" y="4569969.0824" z="0.0000" type="priority" />
	<node id="247042912" x="414780.2703" y="4571220.8447" z="0.0000" type="priority" />
	<node id="211232066" x="414000.9621" y="4570033.1765" z="0.0000" type="priority" />
	<node id="247042920" x="414736.5080" y="4571186.2160" z="0.0000" type="priority" />
	<node id="1771967379" x="414206.3516" y="4570272.9574" z="0.0000" type="priority" />
	<node id="247042921" x="414727.7779" y="4571179.4899" z="0.0000" type="priority" />
	<node id="1771967378" x="414197.9379" y="4570286.0808" z="0.0000" type="priority" />
	<node id="1771967377" x="414189.3040" y="4570384.8796" z="0.0000" type="priority" />
	<node id="1771967376" x="414206.0179" y="4570288.6835" z="0.0000" type="priority" />
	<node id="243490543" x="413287.4626" y="4568984.1264" z="0.0000" type="priority" />
	<node id="243490544" x="413317.6662" y="4568849.3724" z="0.0000" type="priority" />
	<node id="1771967371" x="414120.9127" y="4570784.5832" z="0.0000" type="priority" />
	<node id="1771967375" x="414209.2823" y="4570287.0794" z="0.0000" type="priority" />
	<node id="1771967374" x="414102.1556" y="4570783.4724" z="0.0000" type="priority" />
	<node id="1771967373" x="414195.9673" y="4570280.9188" z="0.0000" type="priority" />
	<node id="205175250" x="416930.1630" y="4568862.5234" z="0.0000" type="priority" />
	<node id="211180302" x="413259.3735" y="4569867.9057" z="0.0000" type="priority" />
	<node id="243491867" x="412357.5117" y="4568784.0735" z="0.0000" type="priority" />
	<node id="1771967389" x="414199.0477" y="4570287.1447" z="0.0000" type="priority" />
	<node id="1771967382" x="414046.4365" y="4570858.0121" z="0.0000" type="priority" />
	<node id="1771967381" x="414032.9886" y="4570851.1649" z="0.0000" type="priority" />
	<node id="1771967380" x="414106.7243" y="4570795.8763" z="0.0000" type="priority" />
	<node id="1771967385" x="414113.5021" y="4570796.7733" z="0.0000" type="priority" />
	<node id="1771967384" x="414196.4938" y="4570283.6551" z="0.0000" type="priority" />
	<node id="243535115" x="413706.9471" y="4569250.6137" z="0.0000" type="priority" />
	<node id="248454036" x="413174.2117" y="4570152.1561" z="0.0000" type="priority" />
	<node id="248454034" x="413073.7365" y="4570310.1795" z="0.0000" type="priority" />
	<node id="248454035" x="413020.7469" y="4570338.5825" z="0.0000" type="priority" />
	<node id="2308421793" x="413089.2300" y="4568977.2983" z="0.0000" type="priority" />
	<node id="248454033" x="413316.5890" y="4570178.9377" z="0.0000" type="priority" />
	<node id="2308421792" x="413068.7309" y="4568958.4011" z="0.0000" type="priority" />
	<node id="2308421791" x="413077.9064" y="4568964.8979" z="0.0000" type="priority" />
	<node id="2308421790" x="413064.0677" y="4568953.7490" z="0.0000" type="priority" />
	<node id="2308421797" x="412857.1595" y="4568872.4833" z="0.0000" type="priority" />
	<node id="2308421796" x="412852.5403" y="4568872.9161" z="0.0000" type="priority" />
	<node id="2308421795" x="412845.4917" y="4568873.3559" z="0.0000" type="priority" />
	<node id="2308421799" x="412886.5824" y="4568866.9568" z="0.0000" type="priority" />
	<node id="2308421798" x="412899.1177" y="4568867.8616" z="0.0000" type="priority" />
	<node id="215516068" x="414087.1976" y="4569145.4732" z="0.0000" type="priority" />
	<node id="215187986" x="414191.4491" y="4569366.8296" z="0.0000" type="priority" />
	<node id="215516067" x="414112.1645" y="4569162.0331" z="0.0000" type="priority" />
	<node id="206929428" x="415571.8028" y="4569197.8981" z="0.0000" type="priority" />
	<node id="215187983" x="414188.0254" y="4569360.6522" z="0.0000" type="priority" />
	<node id="215516064" x="414149.1887" y="4569217.8673" z="0.0000" type="priority" />
	<node id="215187984" x="414203.2224" y="4569353.6555" z="0.0000" type="priority" />
	<node id="215516065" x="414133.3171" y="4569187.6095" z="0.0000" type="priority" />
	<node id="206929426" x="415596.7647" y="4569180.4207" z="0.0000" type="priority" />
	<node id="215585497" x="415157.8528" y="4569182.3618" z="0.0000" type="priority" />
	<node id="206929427" x="415583.1784" y="4569186.3076" z="0.0000" type="priority" />
	<node id="215516063" x="414162.6103" y="4569254.2053" z="0.0000" type="priority" />
	<node id="2325274013" x="414828.0925" y="4570916.4882" z="0.0000" type="priority" />
	<node id="211194992" x="414287.9111" y="4570529.7802" z="0.0000" type="priority" />
	<node id="211194994" x="414301.2470" y="4570506.4949" z="0.0000" type="priority" />
	<node id="2325274017" x="414681.3837" y="4570845.6817" z="0.0000" type="priority" />
	<node id="211194997" x="414290.2848" y="4570546.4182" z="0.0000" type="priority" />
	<node id="248454069" x="413197.9445" y="4570087.8733" z="0.0000" type="priority" />
	<node id="211154083" x="414564.3400" y="4570410.8312" z="0.0000" type="priority" />
	<node id="215584169" x="415167.5973" y="4568962.6934" z="0.0000" type="priority" />
	<node id="248454063" x="413510.4397" y="4570039.8260" z="0.0000" type="priority" />
	<node id="215584167" x="415142.0043" y="4568964.1133" z="0.0000" type="priority" />
	<node id="215555606" x="414748.9543" y="4569508.0254" z="0.0000" type="priority" />
	<node id="633400032" x="414493.0264" y="4569817.8674" z="0.0000" type="priority" />
	<node id="2325274021" x="414615.0634" y="4570952.1966" z="0.0000" type="priority" />
	<node id="2325790421" x="415349.9742" y="4570239.7808" z="0.0000" type="priority" />
	<node id="248454060" x="413468.6627" y="4570141.4962" z="0.0000" type="priority" />
	<node id="215656348" x="415157.1466" y="4569201.5453" z="0.0000" type="priority" />
	<node id="248454058" x="413259.8713" y="4570149.8459" z="0.0000" type="priority" />
	<node id="215198612" x="414303.3772" y="4569951.5953" z="0.0000" type="priority" />
	<node id="248454059" x="413334.0588" y="4570130.2191" z="0.0000" type="priority" />
	<node id="2325790419" x="415314.3289" y="4570316.2307" z="0.0000" type="priority" />
	<node id="248454056" x="413297.4006" y="4570381.3576" z="0.0000" type="priority" />
	<node id="2325790418" x="415350.5485" y="4570238.7416" z="0.0000" type="priority" />
	<node id="248454057" x="413292.5802" y="4570048.7045" z="0.0000" type="priority" />
	<node id="248454054" x="413199.6814" y="4570241.1227" z="0.0000" type="priority" />
	<node id="248454055" x="413230.2345" y="4570299.1837" z="0.0000" type="priority" />
	<node id="215656350" x="415076.1690" y="4569209.0299" z="0.0000" type="priority" />
	<node id="248454052" x="413223.4476" y="4570022.4037" z="0.0000" type="priority" />
	<node id="248454053" x="413166.5222" y="4570182.3046" z="0.0000" type="priority" />
	<node id="214994694" x="413653.1969" y="4568778.8740" z="0.0000" type="priority" />
	<node id="214994699" x="413727.1856" y="4568793.4965" z="0.0000" type="priority" />
	<node id="214994696" x="413685.5892" y="4568782.0649" z="0.0000" type="priority" />
	<node id="1771967349" x="414197.6908" y="4570275.7798" z="0.0000" type="priority" />
	<node id="1771967347" x="414048.6639" y="4570828.9285" z="0.0000" type="priority" />
	<node id="211154076" x="414578.4407" y="4570411.9202" z="0.0000" type="priority" />
	<node id="633400029" x="414636.7622" y="4569876.8361" z="0.0000" type="priority" />
	<node id="211154078" x="414564.1046" y="4570424.3022" z="0.0000" type="priority" />
	<node id="211154077" x="414576.4710" y="4570425.3450" z="0.0000" type="priority" />
	<node id="243535102" x="413813.2708" y="4569303.7925" z="0.0000" type="priority" />
	<node id="1771967341" x="414119.7812" y="4570792.3134" z="0.0000" type="priority" />
	<node id="243535103" x="413740.7811" y="4569375.5683" z="0.0000" type="priority" />
	<node id="1771967340" x="414109.9897" y="4570910.6568" z="0.0000" type="priority" />
	<node id="246253483" x="412866.6277" y="4568859.3235" z="0.0000" type="priority" />
	<node id="4469417837" x="415140.3801" y="4570268.8268" z="0.0000" type="priority" />
	<node id="211201742" x="414179.7411" y="4570385.7808" z="0.0000" type="priority" />
	<node id="4469417852" x="414968.3765" y="4570342.1410" z="0.0000" type="priority" />
	<node id="4510569099" x="415219.1820" y="4569386.5343" z="0.0000" type="priority" />
	<node id="211182102" x="413438.6032" y="4569855.2445" z="0.0000" type="priority" />
	<node id="4510569098" x="415218.2155" y="4569196.5142" z="0.0000" type="priority" />
	<node id="211182100" x="413390.7929" y="4569982.0471" z="0.0000" type="priority" />
	<node id="211160777" x="414356.8836" y="4570150.6683" z="0.0000" type="priority" />
	<node id="211182101" x="413413.2694" y="4569923.8980" z="0.0000" type="priority" />
	<node id="2309352455" x="412670.5707" y="4568775.8567" z="0.0000" type="priority" />
	<node id="2309352451" x="412546.1193" y="4568832.2352" z="0.0000" type="priority" />
	<node id="4469417847" x="415094.2556" y="4570286.8750" z="0.0000" type="priority" />
	<node id="4469417848" x="414883.3946" y="4570307.6825" z="0.0000" type="priority" />
	<node id="211196730" x="414076.1639" y="4570276.3930" z="0.0000" type="priority" />
	<node id="4469417849" x="414889.8464" y="4570311.4709" z="0.0000" type="priority" />
	<node id="243535168" x="413816.8481" y="4569363.2081" z="0.0000" type="priority" />
	<node id="243535169" x="413837.4408" y="4569341.4683" z="0.0000" type="priority" />
	<node id="4469417862" x="414847.2308" y="4570392.3461" z="0.0000" type="priority" />
	<node id="211201750" x="414179.7405" y="4570397.0839" z="0.0000" type="priority" />
	<node id="4469417860" x="414840.0431" y="4570388.6552" z="0.0000" type="priority" />
	<node id="206929433" x="415537.6026" y="4569410.3106" z="0.0000" type="priority" />
	<node id="206929434" x="415523.7020" y="4569420.8313" z="0.0000" type="priority" />
	<node id="206929431" x="415551.0774" y="4569332.7982" z="0.0000" type="priority" />
	<node id="206929432" x="415546.8606" y="4569358.4955" z="0.0000" type="priority" />
	<node id="2309352448" x="412538.4530" y="4568890.7086" z="0.0000" type="priority" />
	<node id="206929430" x="415562.9940" y="4569222.7715" z="0.0000" type="priority" />
	<node id="2309352446" x="412294.9370" y="4568810.3318" z="0.0000" type="priority" />
	<node id="248547132" x="414250.5675" y="4570615.2826" z="0.0000" type="priority" />
	<node id="248547131" x="414245.6746" y="4570625.7996" z="0.0000" type="priority" />
	<node id="2303667580" x="413543.0573" y="4569303.4459" z="0.0000" type="priority" />
	<node id="2303667581" x="413607.7654" y="4569353.8521" z="0.0000" type="priority" />
	<node id="2303667582" x="413557.3345" y="4569314.2463" z="0.0000" type="priority" />
	<node id="2303667583" x="413569.1198" y="4569322.6114" z="0.0000" type="priority" />
	<node id="2303667584" x="413721.7074" y="4569439.1831" z="0.0000" type="priority" />
	<node id="215565056" x="414416.2933" y="4569405.2073" z="0.0000" type="priority" />
	<node id="215516070" x="414074.2200" y="4569141.1074" z="0.0000" type="priority" />
	<node id="4469417854" x="415092.7511" y="4570357.4425" z="0.0000" type="priority" />
	<node id="248547147" x="414825.6067" y="4570812.9572" z="0.0000" type="priority" />
	<node id="248547146" x="414711.6521" y="4570713.6198" z="0.0000" type="priority" />
	<node id="248547145" x="414646.1078" y="4570649.5126" z="0.0000" type="priority" />
	<node id="248547144" x="414564.0489" y="4570570.6882" z="0.0000" type="priority" />
	<node id="2303667593" x="413528.3250" y="4569293.1173" z="0.0000" type="priority" />
	<node id="2303667594" x="413480.8640" y="4569260.2941" z="0.0000" type="priority" />
	<node id="243535140" x="413784.8476" y="4569332.0652" z="0.0000" type="priority" />
	<node id="243535141" x="413885.9834" y="4569433.2948" z="0.0000" type="priority" />
	<node id="243535142" x="413904.9831" y="4569458.8517" z="0.0000" type="priority" />
	<node id="243535143" x="413932.6012" y="4569484.3178" z="0.0000" type="priority" />
	<node id="243535144" x="413955.8208" y="4569501.9416" z="0.0000" type="priority" />
	<node id="243535145" x="414010.7682" y="4569527.7953" z="0.0000" type="priority" />
	<node id="243535146" x="414135.2285" y="4569595.0875" z="0.0000" type="priority" />
	<node id="4469417866" x="415487.9981" y="4570385.1821" z="0.0000" type="priority" />
	<node id="206934845" x="414869.0234" y="4569965.7933" z="0.0000" type="priority" />
	<node id="206934847" x="415023.7043" y="4570040.8520" z="0.0000" type="priority" />
	<node id="2308050135" x="413993.9634" y="4570344.4285" z="0.0000" type="priority" />
	<node id="206934846" x="414975.2552" y="4570017.0689" z="0.0000" type="priority" />
	<node id="248547118" x="414257.0916" y="4570629.4512" z="0.0000" type="priority" />
	<node id="206934849" x="415218.5600" y="4570166.7757" z="0.0000" type="priority" />
	<node id="2308050137" x="413988.5869" y="4570355.1179" z="0.0000" type="priority" />
	<node id="206934848" x="415132.2675" y="4570103.3280" z="0.0000" type="priority" />
	<node id="2308050136" x="413992.3450" y="4570349.9327" z="0.0000" type="priority" />
	<node id="211231592" x="413893.1756" y="4569899.3028" z="0.0000" type="priority" />
	<node id="4028044696" x="414106.4400" y="4570449.1909" z="0.0000" type="priority" />
	<node id="1771967393" x="414187.1247" y="4570398.9398" z="0.0000" type="priority" />
	<node id="1771967391" x="414168.4067" y="4570399.0941" z="0.0000" type="priority" />
	<node id="1771967390" x="414154.3883" y="4570900.1728" z="0.0000" type="priority" />
	<node id="1771967396" x="414192.7999" y="4570390.1235" z="0.0000" type="priority" />
	<node id="1771967394" x="414156.4268" y="4570908.2541" z="0.0000" type="priority" />
	<node id="206934850" x="415278.7561" y="4570211.9083" z="0.0000" type="priority" />
	<node id="206934852" x="415385.4455" y="4570298.7592" z="0.0000" type="priority" />
	<node id="206934851" x="415316.4893" y="4570239.9375" z="0.0000" type="priority" />
	<node id="206934854" x="415469.0525" y="4570378.7182" z="0.0000" type="priority" />
	<node id="206934853" x="415421.0775" y="4570333.4419" z="0.0000" type="priority" />
	<node id="4469417891" x="415509.1663" y="4570490.6721" z="0.0000" type="priority" />
	<node id="248547127" x="414239.3098" y="4570634.3686" z="0.0000" type="priority" />
	<node id="243564503" x="413989.2022" y="4569406.2919" z="0.0000" type="priority" />
	<node id="243564504" x="414016.0237" y="4569425.3167" z="0.0000" type="priority" />
	<node id="210348895" x="415104.0381" y="4570292.5678" z="0.0000" type="priority" />
	<node id="210348896" x="414957.6720" y="4570211.0481" z="0.0000" type="priority" />
	<node id="210348897" x="414940.7526" y="4570205.3168" z="0.0000" type="priority" />
	<node id="210348899" x="414936.4184" y="4570209.2870" z="0.0000" type="priority" />
	<node id="2303439855" x="412859.7507" y="4568871.9970" z="0.0000" type="priority" />
	<node id="215566345" x="414571.9770" y="4569315.2843" z="0.0000" type="priority" />
	<node id="246535499" x="413161.2389" y="4569000.1661" z="0.0000" type="priority" />
	<node id="243535170" x="413845.9916" y="4569334.9271" z="0.0000" type="priority" />
	<node id="243568097" x="413913.8217" y="4569233.8394" z="0.0000" type="priority" />
	<node id="243535171" x="413856.0508" y="4569334.0863" z="0.0000" type="priority" />
	<node id="243568098" x="413913.9489" y="4569244.5859" z="0.0000" type="priority" />
	<node id="243535172" x="413914.4150" y="4569344.8539" z="0.0000" type="priority" />
	<node id="243535173" x="413921.6269" y="4569346.9226" z="0.0000" type="priority" />
	<node id="243535174" x="413927.3048" y="4569340.4044" z="0.0000" type="priority" />
	<node id="243535175" x="413930.7879" y="4569331.0587" z="0.0000" type="priority" />
	<node id="1124090288" x="413655.1935" y="4568851.8099" z="0.0000" type="priority" />
	<node id="243535181" x="413979.9909" y="4569356.9802" z="0.0000" type="priority" />
	<node id="243535182" x="413970.1856" y="4569379.2916" z="0.0000" type="priority" />
	<node id="243535183" x="413965.9399" y="4569385.0711" z="0.0000" type="priority" />
	<node id="206953161" x="414994.9651" y="4570841.8534" z="0.0000" type="priority" />
	<node id="206953162" x="414986.7066" y="4570848.9673" z="0.0000" type="priority" />
	<node id="2245166598" x="414737.1091" y="4569200.6603" z="0.0000" type="priority" />
	<node id="2245166599" x="414570.0122" y="4569202.8982" z="0.0000" type="priority" />
	<node id="2245166594" x="414851.2825" y="4569193.6715" z="0.0000" type="priority" />
	<node id="2245166595" x="414815.9893" y="4569194.3511" z="0.0000" type="priority" />
	<node id="2245166596" x="414142.6869" y="4569204.2871" z="0.0000" type="priority" />
	<node id="2245166597" x="414545.8742" y="4569201.1720" z="0.0000" type="priority" />
	<node id="2303439825" x="412867.3034" y="4568859.0823" z="0.0000" type="priority" />
	<node id="4089438786" x="413334.8784" y="4569791.9918" z="0.0000" type="priority" />
	<node id="2303439827" x="412863.0251" y="4568878.8863" z="0.0000" type="priority" />
	<node id="4089438788" x="413311.6450" y="4569802.7835" z="0.0000" type="priority" />
	<node id="4089438787" x="413405.3641" y="4569701.7375" z="0.0000" type="priority" />
	<node id="2303439823" x="412864.7437" y="4568858.7021" z="0.0000" type="priority" />
	<node id="206953169" x="414900.0279" y="4570776.3667" z="0.0000" type="priority" />
	<node id="206953168" x="414908.1259" y="4570792.7491" z="0.0000" type="priority" />
	<node id="211229224" x="413521.6821" y="4570198.4583" z="0.0000" type="priority" />
	<node id="206953165" x="414946.6971" y="4570833.1134" z="0.0000" type="priority" />
	<node id="206953164" x="414976.2082" y="4570848.6015" z="0.0000" type="priority" />
	<node id="206953167" x="414916.3807" y="4570805.3547" z="0.0000" type="priority" />
	<node id="206953166" x="414930.0075" y="4570819.6960" z="0.0000" type="priority" />
	<node id="248451883" x="414321.1643" y="4570500.1090" z="0.0000" type="priority" />
	<node id="248451882" x="414317.4601" y="4570497.7876" z="0.0000" type="priority" />
	<node id="248451884" x="414333.0983" y="4570509.2396" z="0.0000" type="priority" />
	<node id="246259635" x="413381.6479" y="4569064.8800" z="0.0000" type="priority" />
	<node id="206953159" x="414991.1550" y="4570823.9996" z="0.0000" type="priority" />
	<node id="633400968" x="414517.2222" y="4570692.5972" z="0.0000" type="priority" />
	<node id="633400969" x="414579.7292" y="4570754.7515" z="0.0000" type="priority" />
	<node id="209181314" x="413265.5952" y="4569024.6809" z="0.0000" type="priority" />
	<node id="2312599033" x="415177.0617" y="4570454.4113" z="0.0000" type="priority" />
	<node id="2245166576" x="414771.1147" y="4569166.5968" z="0.0000" type="priority" />
	<node id="2245166577" x="414724.1574" y="4569168.4462" z="0.0000" type="priority" />
	<node id="2245166578" x="414751.6995" y="4569169.7111" z="0.0000" type="priority" />
	<node id="2303439852" x="412868.4250" y="4568915.6624" z="0.0000" type="priority" />
	<node id="2245166572" x="414763.6503" y="4569162.9869" z="0.0000" type="priority" />
	<node id="2245166574" x="414157.5770" y="4569170.5462" z="0.0000" type="priority" />
	<node id="2245166575" x="414728.1076" y="4569165.2576" z="0.0000" type="priority" />
	<node id="2245166580" x="414126.5350" y="4569177.2525" z="0.0000" type="priority" />
	<node id="2303439846" x="412869.2473" y="4568894.7783" z="0.0000" type="priority" />
	<node id="2245166581" x="414151.8961" y="4569181.8053" z="0.0000" type="priority" />
	<node id="2303439849" x="412866.9515" y="4568886.3562" z="0.0000" type="priority" />
	<node id="1918810188" x="414470.6554" y="4570293.8493" z="0.0000" type="priority" />
	<node id="2245166582" x="414751.0217" y="4569177.6357" z="0.0000" type="priority" />
	<node id="633400996" x="414428.3231" y="4570934.3284" z="0.0000" type="priority" />
	<node id="1918810186" x="414436.2269" y="4570250.8184" z="0.0000" type="priority" />
	<node id="246829467" x="414919.0564" y="4569191.0798" z="0.0000" type="priority" />
	<node id="2245166587" x="414850.4701" y="4569180.0906" z="0.0000" type="priority" />
	<node id="2245166588" x="414845.7628" y="4569181.5780" z="0.0000" type="priority" />
	<node id="2245166589" x="414825.2320" y="4569186.7149" z="0.0000" type="priority" />
	<node id="2245166583" x="414475.4464" y="4569181.0922" z="0.0000" type="priority" />
	<node id="2245166585" x="414429.5996" y="4569184.0519" z="0.0000" type="priority" />
	<node id="2245166586" x="414644.0506" y="4569182.3320" z="0.0000" type="priority" />
	<node id="2245166590" x="414150.1665" y="4569196.3821" z="0.0000" type="priority" />
	<node id="2245166591" x="414844.4104" y="4569189.1330" z="0.0000" type="priority" />
	<node id="2245166592" x="414737.1058" y="4569192.5216" z="0.0000" type="priority" />
	<node id="2245166593" x="414783.7137" y="4569194.4626" z="0.0000" type="priority" />
	<node id="4469417906" x="415133.2278" y="4570558.8268" z="0.0000" type="priority" />
	<node id="4469417908" x="415732.4218" y="4570598.7583" z="0.0000" type="priority" />
	<node id="633400984" x="414142.6356" y="4570902.8098" z="0.0000" type="priority" />
	<node id="243492394" x="413191.6997" y="4568907.5343" z="0.0000" type="priority" />
	<node id="2245166558" x="413372.4529" y="4569153.0940" z="0.0000" type="priority" />
	<node id="2245166559" x="414263.5805" y="4569147.7115" z="0.0000" type="priority" />
	<node id="243567504" x="414020.9987" y="4569331.6907" z="0.0000" type="priority" />
	<node id="2245166554" x="413388.8120" y="4569151.5558" z="0.0000" type="priority" />
	<node id="243567505" x="414016.8382" y="4569341.1443" z="0.0000" type="priority" />
	<node id="2245166555" x="413380.9479" y="4569152.4377" z="0.0000" type="priority" />
	<node id="2245166556" x="413356.0403" y="4569152.9564" z="0.0000" type="priority" />
	<node id="2245166557" x="413364.1690" y="4569153.1927" z="0.0000" type="priority" />
	<node id="2245166550" x="413328.9086" y="4569147.5059" z="0.0000" type="priority" />
	<node id="2245166551" x="413411.6489" y="4569146.6761" z="0.0000" type="priority" />
	<node id="2245166552" x="413404.2240" y="4569148.5632" z="0.0000" type="priority" />
	<node id="2245166553" x="413396.3033" y="4569150.3229" z="0.0000" type="priority" />
	<node id="4464835767" x="413011.7661" y="4570207.4820" z="0.0000" type="priority" />
	<node id="4464835768" x="413516.0854" y="4570203.2549" z="0.0000" type="priority" />
	<node id="4464835769" x="413527.2284" y="4570204.9100" z="0.0000" type="priority" />
	<node id="2245166560" x="414100.4101" y="4569153.4225" z="0.0000" type="priority" />
	<node id="2303667561" x="413655.4515" y="4569136.8388" z="0.0000" type="priority" />
	<node id="4464835764" x="413517.4202" y="4570192.9462" z="0.0000" type="priority" />
	<node id="211199771" x="413936.7561" y="4570582.8821" z="0.0000" type="priority" />
	<node id="4464835765" x="413526.9822" y="4570194.0650" z="0.0000" type="priority" />
	<node id="2303667563" x="413606.0026" y="4569227.9953" z="0.0000" type="priority" />
	<node id="4464835762" x="412994.6384" y="4570193.5857" z="0.0000" type="priority" />
	<node id="213686556" x="416222.0251" y="4569141.5159" z="0.0000" type="priority" />
	<node id="2245166569" x="414119.2634" y="4569168.7112" z="0.0000" type="priority" />
	<node id="2245166565" x="414179.0297" y="4569156.9470" z="0.0000" type="priority" />
	<node id="2303667564" x="413574.2462" y="4569268.9993" z="0.0000" type="priority" />
	<node id="2245166566" x="414172.9444" y="4569158.7842" z="0.0000" type="priority" />
	<node id="2245166568" x="414161.2221" y="4569166.3728" z="0.0000" type="priority" />
	<node id="2245166562" x="414223.1304" y="4569152.2521" z="0.0000" type="priority" />
	<node id="2245166563" x="414263.6321" y="4569152.7961" z="0.0000" type="priority" />
	<node id="2245166564" x="414184.8785" y="4569156.3673" z="0.0000" type="priority" />
	<node id="211199762" x="413949.3478" y="4570573.2509" z="0.0000" type="priority" />
	<node id="4464835778" x="413775.8465" y="4570224.8530" z="0.0000" type="priority" />
	<node id="210352999" x="414717.3611" y="4570284.8674" z="0.0000" type="priority" />
	<node id="2245166570" x="414739.0127" y="4569161.5213" z="0.0000" type="priority" />
	<node id="2245166571" x="414733.2747" y="4569162.9764" z="0.0000" type="priority" />
	<node id="4464835775" x="413640.8609" y="4570218.6269" z="0.0000" type="priority" />
	<node id="4464835776" x="413654.2429" y="4570219.8004" z="0.0000" type="priority" />
	<node id="1510462060" x="413227.5783" y="4570438.7840" z="0.0000" type="priority" />
	<node id="2302890645" x="413584.9472" y="4568772.7670" z="0.0000" type="priority" />
	<node id="4464835770" x="413641.9342" y="4570204.6240" z="0.0000" type="priority" />
	<node id="215201058" x="414453.9463" y="4570100.2274" z="0.0000" type="priority" />
	<node id="2302890644" x="413572.1315" y="4568772.2419" z="0.0000" type="priority" />
	<node id="4464835771" x="413655.4452" y="4570207.4837" z="0.0000" type="priority" />
	<node id="211199766" x="413947.8097" y="4570584.8276" z="0.0000" type="priority" />
	<node id="2302890648" x="413602.9857" y="4568775.0066" z="0.0000" type="priority" />
	<node id="2302890647" x="413594.7385" y="4568773.9942" z="0.0000" type="priority" />
	<node id="246782374" x="414279.6830" y="4569166.3306" z="0.0000" type="priority" />
	<node id="2245166536" x="413460.8336" y="4569123.6067" z="0.0000" type="priority" />
	<node id="2245166537" x="413288.5940" y="4569128.2447" z="0.0000" type="priority" />
	<node id="2245166538" x="413964.6105" y="4569123.2053" z="0.0000" type="priority" />
	<node id="2245166539" x="413450.7103" y="4569129.6452" z="0.0000" type="priority" />
	<node id="2245166532" x="413488.3860" y="4569105.9690" z="0.0000" type="priority" />
	<node id="2245166533" x="413917.7861" y="4569105.1613" z="0.0000" type="priority" />
	<node id="2245166534" x="413902.3875" y="4569107.8861" z="0.0000" type="priority" />
	<node id="2245166535" x="413471.4097" y="4569116.9077" z="0.0000" type="priority" />
	<node id="214979872" x="413640.8539" y="4569183.0351" z="0.0000" type="priority" />
	<node id="2245166530" x="413501.6612" y="4569097.9833" z="0.0000" type="priority" />
	<node id="2245166531" x="413918.0008" y="4569099.9402" z="0.0000" type="priority" />
	<node id="4464835785" x="413204.1188" y="4570238.8601" z="0.0000" type="priority" />
	<node id="4172684134" x="414883.0192" y="4570722.1154" z="0.0000" type="priority" />
	<node id="4464835782" x="413786.8920" y="4570228.1863" z="0.0000" type="priority" />