<edges>
	<edge id="20310966_215513249_4593384213_215513249" from="215513249" to="4563588379" numLanes="2" speed="8.33" />
	<edge id="20310966_215513249_4593384213_4563588379" from="4563588379" to="4593384213" numLanes="2" speed="8.33" />
	<edge id="416512010_248547569_4172565189_248547569" from="248547569" to="248547570" numLanes="1" speed="8.33" />
	<edge id="416512010_248547569_4172565189_248547570" from="248547570" to="4172565189" numLanes="1" speed="8.33" />
	<edge id="49533257_248452897_211223728_248452897" from="248452897" to="211223728" numLanes="2" speed="8.33" />
	<edge id="23029068_428289552_875819673_428289552" from="428289552" to="875819673" numLanes="1" speed="8.33" />
	<edge id="49549039_248547146_248547360_248547146" from="248547146" to="248451072" numLanes="2" speed="8.33" />
	<edge id="49549039_248547146_248547360_248451072" from="248451072" to="248547360" numLanes="2" speed="8.33" />
	<edge id="221309862_2303442528_2303442532_2303442528" from="2303442528" to="2303442529" numLanes="2" speed="13.89" />
	<edge id="221309862_2303442528_2303442532_2303442529" from="2303442529" to="2303442530" numLanes="2" speed="13.89" />
	<edge id="221309862_2303442528_2303442532_2303442530" from="2303442530" to="2303442531" numLanes="2" speed="13.89" />
	<edge id="221309862_2303442528_2303442532_2303442531" from="2303442531" to="2303442532" numLanes="2" speed="13.89" />
	<edge id="22932477_247043379_247043344_247043379" from="247043379" to="247043344" numLanes="2" speed="8.33" />
	<edge id="295659831_5410374585_211183063_5410374585" from="5410374585" to="211183063" numLanes="1" speed="8.33" />
	<edge id="460765283_4563686653_214987033_4563686653" from="4563686653" to="214987033" numLanes="1" speed="8.33" />
	<edge id="19922938_209143358_209143361_209143358" from="209143358" to="209143360" numLanes="1" speed="13.89" />
	<edge id="19922938_209143358_209143361_209143360" from="209143360" to="4464835141" numLanes="1" speed="13.89" />
	<edge id="19922938_209143358_209143361_4464835141" from="4464835141" to="209143361" numLanes="1" speed="13.89" />
	<edge id="223801987_2326727227_211180763_2326727227" from="2326727227" to="211180763" numLanes="1" speed="8.33" />
	<edge id="406919715_428470143_528930025_428470143" from="428470143" to="528930025" numLanes="1" speed="8.33" />
	<edge id="22696846_243461412_243460929_243461412" from="243461412" to="243460929" numLanes="2" speed="8.33" />
	<edge id="561036957_211293446_211293445_211293446" from="211293446" to="211293445" numLanes="2" speed="13.89" />
	<edge id="265567367_206974638_247041389_206974638" from="206974638" to="247041389" numLanes="1" speed="13.89" />
	<edge id="450014492_211228160_815095844_211228160" from="211228160" to="4464835868" numLanes="1" speed="8.33" />
	<edge id="450014492_211228160_815095844_4464835868" from="4464835868" to="4464835857" numLanes="1" speed="8.33" />
	<edge id="450014492_211228160_815095844_4464835857" from="4464835857" to="815095844" numLanes="1" speed="8.33" />
	<edge id="20282784_4563686643_214983495_4563686643" from="4563686643" to="4563686644" numLanes="2" speed="8.33" />
	<edge id="20282784_4563686643_214983495_4563686644" from="4563686644" to="4590603044" numLanes="2" speed="8.33" />
	<edge id="20282784_4563686643_214983495_4590603044" from="4590603044" to="214983495" numLanes="2" speed="8.33" />
	<edge id="22901576_246547246_243490111_246547246" from="246547246" to="243490111" numLanes="2" speed="8.33" />
	<edge id="20283754_214997411_243461358_214997411" from="214997411" to="243461358" numLanes="1" speed="8.33" />
	<edge id="550855647_4560323341_4560323340_4560323341" from="4560323341" to="4560323340" numLanes="2" speed="13.89" />
	<edge id="27866365_209143363_213684106_209143363" from="209143363" to="213684106" numLanes="2" speed="8.33" />
	<edge id="420883155_206936949_206938520_206936949" from="206936949" to="206938518" numLanes="2" speed="36.11" />
	<edge id="420883155_206936949_206938520_206938518" from="206938518" to="206938519" numLanes="2" speed="36.11" />
	<edge id="420883155_206936949_206938520_206938519" from="206938519" to="206938520" numLanes="2" speed="36.11" />
	<edge id="20207032_213420811_215693105_213420811" from="213420811" to="215693105" numLanes="2" speed="8.33" />
	<edge id="22891627_243462745_246279194_243462745" from="243462745" to="1606535559" numLanes="2" speed="13.89" />
	<edge id="22891627_243462745_246279194_1606535559" from="1606535559" to="1606535555" numLanes="2" speed="13.89" />
	<edge id="22891627_243462745_246279194_1606535555" from="1606535555" to="1606535544" numLanes="2" speed="13.89" />
	<edge id="22891627_243462745_246279194_1606535544" from="1606535544" to="246279194" numLanes="2" speed="13.89" />
	<edge id="20207032_215693105_213685009_215693105" from="215693105" to="215691336" numLanes="2" speed="8.33" />
	<edge id="20207032_215693105_213685009_215691336" from="215691336" to="213685009" numLanes="2" speed="8.33" />
	<edge id="22924846_2260624327_246839352_2260624327" from="2260624327" to="2260624305" numLanes="2" speed="18.06" />
	<edge id="22924846_2260624327_246839352_2260624305" from="2260624305" to="246839352" numLanes="2" speed="18.06" />
	<edge id="564609316_1918810186_248452986_1918810186" from="1918810186" to="4469417829" numLanes="1" speed="13.89" />
	<edge id="564609316_1918810186_248452986_4469417829" from="4469417829" to="248452986" numLanes="1" speed="13.89" />
	<edge id="23029022_428289551_248453436_428289551" from="428289551" to="4464835444" numLanes="2" speed="8.33" />
	<edge id="23029022_428289551_248453436_4464835444" from="4464835444" to="248453436" numLanes="2" speed="8.33" />
	<edge id="22696846_243460912_243460926_243460912" from="243460912" to="243460926" numLanes="2" speed="8.33" />
	<edge id="449536132_4464835617_4464835613_4464835617" from="4464835617" to="4464835614" numLanes="1" speed="8.33" />
	<edge id="449536132_4464835617_4464835613_4464835614" from="4464835614" to="4464835611" numLanes="1" speed="8.33" />
	<edge id="449536132_4464835617_4464835613_4464835611" from="4464835611" to="4464835610" numLanes="1" speed="8.33" />
	<edge id="449536132_4464835617_4464835613_4464835610" from="4464835610" to="4464835612" numLanes="1" speed="8.33" />
	<edge id="449536132_4464835617_4464835613_4464835612" from="4464835612" to="4464835613" numLanes="1" speed="8.33" />
	<edge id="49533257_248452697_248452897_248452697" from="248452697" to="248452897" numLanes="2" speed="8.33" />
	<edge id="22696924_243461080_243462031_243461080" from="243461080" to="243462031" numLanes="1" speed="8.33" />
	<edge id="22696918_213682552_243461907_213682552" from="213682552" to="243461907" numLanes="2" speed="8.33" />
	<edge id="67515098_215574314_215556848_215574314" from="215574314" to="215556848" numLanes="1" speed="8.33" />
	<edge id="31761892_215530852_215185006_215530852" from="215530852" to="215004608" numLanes="1" speed="8.33" />
	<edge id="31761892_215530852_215185006_215004608" from="215004608" to="215185006" numLanes="1" speed="8.33" />
	<edge id="139993733_248453939_1510251333_248453939" from="248453939" to="4464835854" numLanes="2" speed="8.33" />
	<edge id="139993733_248453939_1510251333_4464835854" from="4464835854" to="1510251333" numLanes="2" speed="8.33" />
	<edge id="23029076_1528790080_248454084_1528790080" from="1528790080" to="4464835921" numLanes="2" speed="8.33" />
	<edge id="23029076_1528790080_248454084_4464835921" from="4464835921" to="4464835688" numLanes="2" speed="8.33" />
	<edge id="23029076_1528790080_248454084_4464835688" from="4464835688" to="248454084" numLanes="2" speed="8.33" />
	<edge id="22703745_215620069_215658521_215620069" from="215620069" to="215658521" numLanes="1" speed="8.33" />
	<edge id="560113361_215523777_215523779_215523777" from="215523777" to="2245166605" numLanes="2" speed="18.06" />
	<edge id="560113361_215523777_215523779_2245166605" from="2245166605" to="215523779" numLanes="2" speed="18.06" />
	<edge id="22697042_243461368_214994705_243461368" from="243461368" to="214994705" numLanes="2" speed="8.33" />
	<edge id="165657372_632874429_1771967418_632874429" from="632874429" to="4028044696" numLanes="2" speed="8.33" />
	<edge id="165657372_632874429_1771967418_4028044696" from="4028044696" to="1771967391" numLanes="2" speed="8.33" />
	<edge id="165657372_632874429_1771967418_1771967391" from="1771967391" to="1771967421" numLanes="2" speed="8.33" />
	<edge id="165657372_632874429_1771967418_1771967421" from="1771967421" to="1771967418" numLanes="2" speed="8.33" />
	<edge id="23028252_247043215_247043327_247043215" from="247043215" to="3560182557" numLanes="2" speed="8.33" />
	<edge id="23028252_247043215_247043327_3560182557" from="3560182557" to="3547410957" numLanes="2" speed="8.33" />
	<edge id="23028252_247043215_247043327_3547410957" from="3547410957" to="3560182578" numLanes="2" speed="8.33" />
	<edge id="23028252_247043215_247043327_3560182578" from="3560182578" to="3560182574" numLanes="2" speed="8.33" />
	<edge id="23028252_247043215_247043327_3560182574" from="3560182574" to="247043327" numLanes="2" speed="8.33" />
	<edge id="20206748_213683186_213684106_213683186" from="213683186" to="2260624287" numLanes="2" speed="8.33" />
	<edge id="20206748_213683186_213684106_2260624287" from="2260624287" to="2260624276" numLanes="2" speed="8.33" />
	<edge id="20206748_213683186_213684106_2260624276" from="2260624276" to="213684101" numLanes="2" speed="8.33" />
	<edge id="20206748_213683186_213684106_213684101" from="213684101" to="213684103" numLanes="2" speed="8.33" />
	<edge id="20206748_213683186_213684106_213684103" from="213684103" to="213684106" numLanes="2" speed="8.33" />
	<edge id="22703867_243534527_560629334_243534527" from="243534527" to="560629334" numLanes="1" speed="8.33" />
	<edge id="22696996_246548093_243462047_246548093" from="246548093" to="243462047" numLanes="1" speed="8.33" />
	<edge id="36842597_211184538_211234751_211184538" from="211184538" to="211234751" numLanes="1" speed="8.33" />
	<edge id="20312468_215571621_215187142_215571621" from="215571621" to="215571622" numLanes="1" speed="8.33" />
	<edge id="20312468_215571621_215187142_215571622" from="215571622" to="215187142" numLanes="1" speed="8.33" />
	<edge id="23029074_248453990_248454035_248453990" from="248453990" to="4464835904" numLanes="1" speed="8.33" />
	<edge id="23029074_248453990_248454035_4464835904" from="4464835904" to="248454035" numLanes="1" speed="8.33" />
	<edge id="215099777_2245166533_3201800445_2245166533" from="2245166533" to="215520035" numLanes="1" speed="27.78" />
	<edge id="215099777_2245166533_3201800445_215520035" from="215520035" to="209186305" numLanes="1" speed="27.78" />
	<edge id="215099777_2245166533_3201800445_209186305" from="209186305" to="3201800445" numLanes="1" speed="27.78" />
	<edge id="22900834_243492404_243492403_243492404" from="243492404" to="243492403" numLanes="2" speed="8.33" />
	<edge id="216669275_2260624327_2260624347_2260624327" from="2260624327" to="2260624332" numLanes="2" speed="18.06" />
	<edge id="216669275_2260624327_2260624347_2260624332" from="2260624332" to="2260624336" numLanes="2" speed="18.06" />
	<edge id="216669275_2260624327_2260624347_2260624336" from="2260624336" to="2260624347" numLanes="2" speed="18.06" />
	<edge id="20206609_213683186_213682561_213683186" from="213683186" to="213682561" numLanes="1" speed="8.33" />
	<edge id="20206177_213424535_213424795_213424535" from="213424535" to="213424795" numLanes="2" speed="13.89" />
	<edge id="20283674_243461092_214997419_243461092" from="243461092" to="214997417" numLanes="2" speed="13.89" />
	<edge id="20283674_243461092_214997419_214997417" from="214997417" to="214997419" numLanes="2" speed="13.89" />
	<edge id="20019732_211184536_211184538_211184536" from="211184536" to="1771967349" numLanes="2" speed="8.33" />
	<edge id="20019732_211184536_211184538_1771967349" from="1771967349" to="1771967416" numLanes="2" speed="8.33" />
	<edge id="20019732_211184536_211184538_1771967416" from="1771967416" to="1771967354" numLanes="2" speed="8.33" />
	<edge id="20019732_211184536_211184538_1771967354" from="1771967354" to="211184538" numLanes="2" speed="8.33" />
	<edge id="20283674_243461144_214997411_243461144" from="243461144" to="214997409" numLanes="2" speed="13.89" />
	<edge id="20283674_243461144_214997411_214997409" from="214997409" to="214997410" numLanes="2" speed="13.89" />
	<edge id="20283674_243461144_214997411_214997410" from="214997410" to="214997411" numLanes="2" speed="13.89" />
	<edge id="20025603_211294154_1771967408_211294154" from="211294154" to="211297288" numLanes="2" speed="13.89" />
	<edge id="20025603_211294154_1771967408_211297288" from="211297288" to="211297289" numLanes="2" speed="13.89" />
	<edge id="20025603_211294154_1771967408_211297289" from="211297289" to="211297290" numLanes="2" speed="13.89" />
	<edge id="20025603_211294154_1771967408_211297290" from="211297290" to="1771967408" numLanes="2" speed="13.89" />
	<edge id="20022171_248452616_211232064_248452616" from="248452616" to="4464835590" numLanes="2" speed="8.33" />
	<edge id="20022171_248452616_211232064_4464835590" from="4464835590" to="211232064" numLanes="2" speed="8.33" />
	<edge id="19794907_205270789_206245330_205270789" from="205270789" to="206245323" numLanes="2" speed="18.06" />
	<edge id="19794907_205270789_206245330_206245323" from="206245323" to="206245326" numLanes="2" speed="18.06" />
	<edge id="19794907_205270789_206245330_206245326" from="206245326" to="206245330" numLanes="2" speed="18.06" />
	<edge id="22891627_246279194_2303423898_246279194" from="246279194" to="1606535543" numLanes="2" speed="13.89" />
	<edge id="22891627_246279194_2303423898_1606535543" from="1606535543" to="2303423898" numLanes="2" speed="13.89" />
	<edge id="540512660_2426678284_2426678283_2426678284" from="2426678284" to="2303442181" numLanes="2" speed="13.89" />
	<edge id="540512660_2426678284_2426678283_2303442181" from="2303442181" to="2426678283" numLanes="2" speed="13.89" />
	<edge id="23028660_248452985_211154078_248452985" from="248452985" to="211154078" numLanes="1" speed="8.33" />
	<edge id="20312361_215569574_215652665_215569574" from="215569574" to="215652665" numLanes="1" speed="8.33" />
	<edge id="221307523_2303416503_2325366155_2303416503" from="2303416503" to="2303421944" numLanes="1" speed="8.33" />
	<edge id="221307523_2303416503_2325366155_2303421944" from="2303421944" to="2303421945" numLanes="1" speed="8.33" />
	<edge id="221307523_2303416503_2325366155_2303421945" from="2303421945" to="2303421947" numLanes="1" speed="8.33" />
	<edge id="221307523_2303416503_2325366155_2303421947" from="2303421947" to="2303421949" numLanes="1" speed="8.33" />
	<edge id="221307523_2303416503_2325366155_2303421949" from="2303421949" to="2303421951" numLanes="1" speed="8.33" />
	<edge id="221307523_2303416503_2325366155_2303421951" from="2303421951" to="2303421952" numLanes="1" speed="8.33" />
	<edge id="221307523_2303416503_2325366155_2303421952" from="2303421952" to="2303421955" numLanes="1" speed="8.33" />
	<edge id="221307523_2303416503_2325366155_2303421955" from="2303421955" to="2303421957" numLanes="1" speed="8.33" />
	<edge id="221307523_2303416503_2325366155_2303421957" from="2303421957" to="2325366155" numLanes="1" speed="8.33" />
	<edge id="20312953_243461352_215607964_243461352" from="243461352" to="215607964" numLanes="2" speed="8.33" />
	<edge id="20022045_2281242221_428298188_2281242221" from="2281242221" to="428298188" numLanes="2" speed="8.33" />
	<edge id="28683194_214987040_2302893524_214987040" from="214987040" to="1124090288" numLanes="1" speed="8.33" />
	<edge id="28683194_214987040_2302893524_1124090288" from="1124090288" to="214987041" numLanes="1" speed="8.33" />
	<edge id="28683194_214987040_2302893524_214987041" from="214987041" to="2302893524" numLanes="1" speed="8.33" />
	<edge id="540512669_211234762_211160777_211234762" from="211234762" to="211160777" numLanes="1" speed="13.89" />
	<edge id="20020195_3452088043_4563693235_3452088043" from="3452088043" to="3452088046" numLanes="2" speed="8.33" />
	<edge id="20020195_3452088043_4563693235_3452088046" from="3452088046" to="4563693232" numLanes="2" speed="8.33" />
	<edge id="20020195_3452088043_4563693235_4563693232" from="4563693232" to="4563693233" numLanes="2" speed="8.33" />
	<edge id="20020195_3452088043_4563693235_4563693233" from="4563693233" to="4563693234" numLanes="2" speed="8.33" />
	<edge id="20020195_3452088043_4563693235_4563693234" from="4563693234" to="4563693237" numLanes="2" speed="8.33" />
	<edge id="20020195_3452088043_4563693235_4563693237" from="4563693237" to="4563693238" numLanes="2" speed="8.33" />
	<edge id="20020195_3452088043_4563693235_4563693238" from="4563693238" to="4563693240" numLanes="2" speed="8.33" />
	<edge id="20020195_3452088043_4563693235_4563693240" from="4563693240" to="4563693235" numLanes="2" speed="8.33" />
	<edge id="304633096_248547407_248547360_248547407" from="248547407" to="248451984" numLanes="1" speed="13.89" />
	<edge id="304633096_248547407_248547360_248451984" from="248451984" to="248547360" numLanes="1" speed="13.89" />
	<edge id="22901192_2309358712_243490243_2309358712" from="2309358712" to="243490243" numLanes="1" speed="8.33" />
	<edge id="22932477_247043345_247043357_247043345" from="247043345" to="247043357" numLanes="2" speed="8.33" />
	<edge id="19735270_205157425_2987835480_205157425" from="205157425" to="2987835480" numLanes="1" speed="8.33" />
	<edge id="22699499_243490354_243490350_243490354" from="243490354" to="243490350" numLanes="1" speed="8.33" />
	<edge id="20312146_215557902_215574311_215557902" from="215557902" to="215574311" numLanes="2" speed="8.33" />
	<edge id="416509243_248454437_211199771_248454437" from="248454437" to="248454436" numLanes="2" speed="8.33" />
	<edge id="416509243_248454437_211199771_248454436" from="248454436" to="248454435" numLanes="2" speed="8.33" />
	<edge id="416509243_248454437_211199771_248454435" from="248454435" to="248454434" numLanes="2" speed="8.33" />
	<edge id="416509243_248454437_211199771_248454434" from="248454434" to="248454433" numLanes="2" speed="8.33" />
	<edge id="416509243_248454437_211199771_248454433" from="248454433" to="248454432" numLanes="2" speed="8.33" />
	<edge id="416509243_248454437_211199771_248454432" from="248454432" to="211199771" numLanes="2" speed="8.33" />
	<edge id="23029076_248454034_1595426836_248454034" from="248454034" to="4464835648" numLanes="2" speed="8.33" />
	<edge id="23029076_248454034_1595426836_4464835648" from="4464835648" to="4464835808" numLanes="2" speed="8.33" />
	<edge id="23029076_248454034_1595426836_4464835808" from="4464835808" to="1595426836" numLanes="2" speed="8.33" />
	<edge id="20282854_4590603043_214980073_4590603043" from="4590603043" to="4563686651" numLanes="2" speed="8.33" />
	<edge id="20282854_4590603043_214980073_4563686651" from="4563686651" to="214980073" numLanes="2" speed="8.33" />
	<edge id="20311206_215523779_215525071_215523779" from="215523779" to="2245166599" numLanes="2" speed="18.06" />
	<edge id="20311206_215523779_215525071_2245166599" from="2245166599" to="2245166597" numLanes="2" speed="18.06" />
	<edge id="20311206_215523779_215525071_2245166597" from="2245166597" to="215525071" numLanes="2" speed="18.06" />
	<edge id="234411854_243490432_243490601_243490432" from="243490432" to="243490601" numLanes="1" speed="13.89" />
	<edge id="22696952_243461819_215611682_243461819" from="243461819" to="215611682" numLanes="2" speed="8.33" />
	<edge id="22708516_215513248_243564118_215513248" from="215513248" to="1174397669" numLanes="1" speed="8.33" />
	<edge id="22708516_215513248_243564118_1174397669" from="1174397669" to="1174397649" numLanes="1" speed="8.33" />
	<edge id="22708516_215513248_243564118_1174397649" from="1174397649" to="243564118" numLanes="1" speed="8.33" />
	<edge id="20206748_215691332_215692277_215691332" from="215691332" to="213684115" numLanes="2" speed="8.33" />
	<edge id="20206748_215691332_215692277_213684115" from="213684115" to="215692277" numLanes="2" speed="8.33" />
	<edge id="44380004_248453915_248454095_248453915" from="248453915" to="248454095" numLanes="2" speed="8.33" />
	<edge id="234411856_243462147_246781213_243462147" from="243462147" to="214994709" numLanes="1" speed="13.89" />
	<edge id="234411856_243462147_246781213_214994709" from="214994709" to="214994711" numLanes="1" speed="13.89" />
	<edge id="234411856_243462147_246781213_214994711" from="214994711" to="246780984" numLanes="1" speed="13.89" />
	<edge id="234411856_243462147_246781213_246780984" from="246780984" to="246781213" numLanes="1" speed="13.89" />
	<edge id="180600787_209149373_211175134_209149373" from="209149373" to="209149374" numLanes="2" speed="27.78" />
	<edge id="180600787_209149373_211175134_209149374" from="209149374" to="209149376" numLanes="2" speed="27.78" />
	<edge id="180600787_209149373_211175134_209149376" from="209149376" to="209149378" numLanes="2" speed="27.78" />
	<edge id="180600787_209149373_211175134_209149378" from="209149378" to="209149380" numLanes="2" speed="27.78" />
	<edge id="180600787_209149373_211175134_209149380" from="209149380" to="209149381" numLanes="2" speed="27.78" />
	<edge id="180600787_209149373_211175134_209149381" from="209149381" to="209149382" numLanes="2" speed="27.78" />
	<edge id="180600787_209149373_211175134_209149382" from="209149382" to="209149383" numLanes="2" speed="27.78" />
	<edge id="180600787_209149373_211175134_209149383" from="209149383" to="211175134" numLanes="2" speed="27.78" />
	<edge id="20313941_213682558_209143363_213682558" from="213682558" to="209143363" numLanes="2" speed="8.33" />
	<edge id="20206206_4560323342_209143364_4560323342" from="4560323342" to="209143364" numLanes="2" speed="13.89" />
	<edge id="223825560_248450418_213829486_248450418" from="248450418" to="5130916288" numLanes="1" speed="8.33" />
	<edge id="223825560_248450418_213829486_5130916288" from="5130916288" to="2326955348" numLanes="1" speed="8.33" />
	<edge id="223825560_248450418_213829486_2326955348" from="2326955348" to="2326955350" numLanes="1" speed="8.33" />
	<edge id="223825560_248450418_213829486_2326955350" from="2326955350" to="2326955352" numLanes="1" speed="8.33" />
	<edge id="223825560_248450418_213829486_2326955352" from="2326955352" to="2326955354" numLanes="1" speed="8.33" />
	<edge id="223825560_248450418_213829486_2326955354" from="2326955354" to="2326955356" numLanes="1" speed="8.33" />
	<edge id="223825560_248450418_213829486_2326955356" from="2326955356" to="213829486" numLanes="1" speed="8.33" />
	<edge id="540512668_215178027_215178026_215178027" from="215178027" to="215176689" numLanes="2" speed="8.33" />
	<edge id="540512668_215178027_215178026_215176689" from="215176689" to="4011932946" numLanes="2" speed="8.33" />
	<edge id="540512668_215178027_215178026_4011932946" from="4011932946" to="4011932947" numLanes="2" speed="8.33" />
	<edge id="540512668_215178027_215178026_4011932947" from="4011932947" to="4011932948" numLanes="2" speed="8.33" />
	<edge id="540512668_215178027_215178026_4011932948" from="4011932948" to="215178026" numLanes="2" speed="8.33" />
	<edge id="22923545_243461144_214995652_243461144" from="243461144" to="214995652" numLanes="2" speed="8.33" />
	<edge id="216669278_2260624399_2260624384_2260624399" from="2260624399" to="2260624401" numLanes="2" speed="18.06" />
	<edge id="216669278_2260624399_2260624384_2260624401" from="2260624401" to="2309305023" numLanes="2" speed="18.06" />
	<edge id="216669278_2260624399_2260624384_2309305023" from="2309305023" to="2260624384" numLanes="2" speed="18.06" />
	<edge id="234411854_243490350_2309358719_243490350" from="243490350" to="243462750" numLanes="1" speed="13.89" />
	<edge id="234411854_243490350_2309358719_243462750" from="243462750" to="2309358719" numLanes="1" speed="13.89" />
	<edge id="561036911_4463881611_428470141_4463881611" from="4463881611" to="4464835281" numLanes="2" speed="8.33" />
	<edge id="561036911_4463881611_428470141_4464835281" from="4464835281" to="4464835398" numLanes="2" speed="8.33" />
	<edge id="561036911_4463881611_428470141_4464835398" from="4464835398" to="428470141" numLanes="2" speed="8.33" />
	<edge id="22696981_243461989_243461988_243461989" from="243461989" to="243461988" numLanes="2" speed="8.33" />
	<edge id="561036957_211295576_211293446_211295576" from="211295576" to="211293449" numLanes="2" speed="13.89" />
	<edge id="561036957_211295576_211293446_211293449" from="211293449" to="211293446" numLanes="2" speed="13.89" />
	<edge id="20019551_211181566_211180906_211181566" from="211181566" to="4464835473" numLanes="2" speed="8.33" />
	<edge id="20019551_211181566_211180906_4464835473" from="4464835473" to="211180906" numLanes="2" speed="8.33" />
	<edge id="22708516_243564118_215513248_243564118" from="243564118" to="1174397649" numLanes="1" speed="8.33" />
	<edge id="22708516_243564118_215513248_1174397649" from="1174397649" to="1174397669" numLanes="1" speed="8.33" />
	<edge id="22708516_243564118_215513248_1174397669" from="1174397669" to="215513248" numLanes="1" speed="8.33" />
	<edge id="450014507_211179937_211179935_211179937" from="211179937" to="2592971657" numLanes="1" speed="8.33" />
	<edge id="450014507_211179937_211179935_2592971657" from="2592971657" to="4464835290" numLanes="1" speed="8.33" />
	<edge id="450014507_211179937_211179935_4464835290" from="4464835290" to="211179935" numLanes="1" speed="8.33" />
	<edge id="44380005_248454098_248454094_248454098" from="248454098" to="248454097" numLanes="1" speed="8.33" />
	<edge id="44380005_248454098_248454094_248454097" from="248454097" to="248454096" numLanes="1" speed="8.33" />
	<edge id="44380005_248454098_248454094_248454096" from="248454096" to="248454094" numLanes="1" speed="8.33" />
	<edge id="215099776_209178110_246550740_209178110" from="209178110" to="246550145" numLanes="2" speed="27.78" />
	<edge id="215099776_209178110_246550740_246550145" from="246550145" to="246550740" numLanes="2" speed="27.78" />
	<edge id="539695291_4563693235_3452088049_4563693235" from="4563693235" to="4563693241" numLanes="2" speed="8.33" />
	<edge id="539695291_4563693235_3452088049_4563693241" from="4563693241" to="3452088049" numLanes="2" speed="8.33" />
	<edge id="242159388_2308424554_243462740_2308424554" from="2308424554" to="243491681" numLanes="1" speed="13.89" />
	<edge id="242159388_2308424554_243462740_243491681" from="243491681" to="4469874261" numLanes="1" speed="13.89" />
	<edge id="242159388_2308424554_243462740_4469874261" from="4469874261" to="4469874260" numLanes="1" speed="13.89" />
	<edge id="242159388_2308424554_243462740_4469874260" from="4469874260" to="243491786" numLanes="1" speed="13.89" />
	<edge id="242159388_2308424554_243462740_243491786" from="243491786" to="4469874259" numLanes="1" speed="13.89" />
	<edge id="242159388_2308424554_243462740_4469874259" from="4469874259" to="2496788107" numLanes="1" speed="13.89" />
	<edge id="242159388_2308424554_243462740_2496788107" from="2496788107" to="2302868848" numLanes="1" speed="13.89" />
	<edge id="242159388_2308424554_243462740_2302868848" from="2302868848" to="243462740" numLanes="1" speed="13.89" />
	<edge id="540512661_214994705_214994696_214994705" from="214994705" to="2303496875" numLanes="1" speed="13.89" />
	<edge id="540512661_214994705_214994696_2303496875" from="2303496875" to="214994704" numLanes="1" speed="13.89" />
	<edge id="540512661_214994705_214994696_214994704" from="214994704" to="214994703" numLanes="1" speed="13.89" />
	<edge id="540512661_214994705_214994696_214994703" from="214994703" to="214994701" numLanes="1" speed="13.89" />
	<edge id="540512661_214994705_214994696_214994701" from="214994701" to="214994699" numLanes="1" speed="13.89" />
	<edge id="540512661_214994705_214994696_214994699" from="214994699" to="214994696" numLanes="1" speed="13.89" />
	<edge id="540512660_243493244_243493238_243493244" from="243493244" to="2303442172" numLanes="2" speed="13.89" />
	<edge id="540512660_243493244_243493238_2303442172" from="2303442172" to="2303442182" numLanes="2" speed="13.89" />
	<edge id="540512660_243493244_243493238_2303442182" from="2303442182" to="2303442173" numLanes="2" speed="13.89" />
	<edge id="540512660_243493244_243493238_2303442173" from="2303442173" to="243493238" numLanes="2" speed="13.89" />
	<edge id="20312079_815095845_215559231_815095845" from="815095845" to="215559224" numLanes="2" speed="19.44" />
	<edge id="20312079_815095845_215559231_215559224" from="215559224" to="215559225" numLanes="2" speed="19.44" />
	<edge id="20312079_815095845_215559231_215559225" from="215559225" to="215559227" numLanes="2" speed="19.44" />
	<edge id="20312079_815095845_215559231_215559227" from="215559227" to="215559228" numLanes="2" speed="19.44" />
	<edge id="20312079_815095845_215559231_215559228" from="215559228" to="215559229" numLanes="2" speed="19.44" />
	<edge id="20312079_815095845_215559231_215559229" from="215559229" to="815095831" numLanes="2" speed="19.44" />
	<edge id="20312079_815095845_215559231_815095831" from="815095831" to="215559231" numLanes="2" speed="19.44" />
	<edge id="22918895_243461092_243461081_243461092" from="243461092" to="243461093" numLanes="2" speed="8.33" />
	<edge id="22918895_243461092_243461081_243461093" from="243461093" to="243461081" numLanes="2" speed="8.33" />
	<edge id="44380006_248453916_248454094_248453916" from="248453916" to="248454094" numLanes="1" speed="8.33" />
	<edge id="22890712_243490898_243490899_243490898" from="243490898" to="243490899" numLanes="1" speed="8.33" />
	<edge id="20313941_215610886_243461140_215610886" from="215610886" to="243461140" numLanes="2" speed="8.33" />
	<edge id="22932481_247043380_247043357_247043380" from="247043380" to="247043357" numLanes="2" speed="8.33" />
	<edge id="304633094_2326806447_247043121_2326806447" from="2326806447" to="4172674567" numLanes="1" speed="8.33" />