<connections>
	<connection from="20310966_215513249_4593384213_215513249" to="20310966_215513249_4593384213_4563588379" />
	<connection from="20310966_215513249_4593384213_4563588379" to="464752673_4593384213_215514026_4593384213" />
	<connection from="20310966_215513249_4593384213_4563588379" to="464752671_4593384213_4563588364_4593384213" />
	<connection from="416512010_248547569_4172565189_248547569" to="416512010_248547569_4172565189_248547570" />
	<connection from="416512010_248547569_4172565189_248547570" to="416512010_4172565189_248547569_4172565189" />
	<connection from="416512010_248547569_4172565189_248547570" to="416512010_4172565189_4172556764_4172565189" />
	<connection from="49533257_248452897_211223728_248452897" to="540512669_211223728_248452541_211223728" />
	<connection from="49533257_248452897_211223728_248452897" to="540512669_211223728_211234762_211223728" />
	<connection from="23029068_428289552_875819673_428289552" to="23029035_875819673_248453436_875819673" />
	<connection from="23029068_428289552_875819673_428289552" to="23029068_875819673_428289551_875819673" />
	<connection from="23029068_428289552_875819673_428289552" to="23029068_875819673_428289552_875819673" />
	<connection from="49549039_248547146_248547360_248547146" to="49549039_248547146_248547360_248451072" />
	<connection from="49549039_248547146_248547360_248451072" to="304633096_248547360_248547407_248547360" />
	<connection from="49549039_248547146_248547360_248451072" to="23028634_248547360_248451982_248547360" />
	<connection from="221309862_2303442528_2303442532_2303442528" to="221309862_2303442528_2303442532_2303442529" />
	<connection from="221309862_2303442528_2303442532_2303442529" to="221309862_2303442528_2303442532_2303442530" />
	<connection from="221309862_2303442528_2303442532_2303442530" to="221309862_2303442528_2303442532_2303442531" />
	<connection from="221309862_2303442528_2303442532_2303442531" to="22699722_2303442532_2426678284_2303442532" />
	<connection from="221309862_2303442528_2303442532_2303442531" to="540512661_2303442532_214994696_2303442532" />
	<connection from="22932477_247043379_247043344_247043379" to="539697840_247043344_247043215_247043344" />
	<connection from="22932477_247043379_247043344_247043379" to="22932477_247043344_247043119_247043344" />
	<connection from="295659831_5410374585_211183063_5410374585" to="295659831_211183063_5410374585_211183063" />
	<connection from="295659831_5410374585_211183063_5410374585" to="450014514_211183063_211180760_211183063" />
	<connection from="295659831_5410374585_211183063_5410374585" to="450014514_211183063_428468967_211183063" />
	<connection from="295659831_5410374585_211183063_5410374585" to="295659831_211183063_428468981_211183063" />
	<connection from="460765283_4563686653_214987033_4563686653" to="20283081_214987033_243462334_214987033" />
	<connection from="460765283_4563686653_214987033_4563686653" to="460765283_214987033_4563686653_214987033" />
	<connection from="19922938_209143358_209143361_209143358" to="19922938_209143358_209143361_209143360" />
	<connection from="19922938_209143358_209143361_209143360" to="19922938_209143358_209143361_4464835141" />
	<connection from="19922938_209143358_209143361_4464835141" to="19922938_209143361_209143358_209143361" />
	<connection from="19922938_209143358_209143361_4464835141" to="22650762_209143361_209143363_209143361" />
	<connection from="223801987_2326727227_211180763_2326727227" to="223801987_211180763_2326727227_211180763" />
	<connection from="223801987_2326727227_211180763_2326727227" to="296070144_211180763_428470135_211180763" />
	<connection from="223801987_2326727227_211180763_2326727227" to="450014512_211180763_528930025_211180763" />
	<connection from="406919715_428470143_528930025_428470143" to="406919715_528930025_428470143_528930025" />
	<connection from="406919715_428470143_528930025_428470143" to="450014512_528930025_211180763_528930025" />
	<connection from="22696846_243461412_243460929_243461412" to="20313941_243460929_215610886_243460929" />
	<connection from="22696846_243461412_243460929_243461412" to="22696846_243460929_243460930_243460929" />
	<connection from="561036957_211293446_211293445_211293446" to="20025422_211293445_2326809394_211293445" />
	<connection from="265567367_206974638_247041389_206974638" to="265567367_247041389_206974638_247041389" />
	<connection from="450014492_211228160_815095844_211228160" to="450014492_211228160_815095844_4464835868" />
	<connection from="450014492_211228160_815095844_4464835868" to="450014492_211228160_815095844_4464835857" />
	<connection from="450014492_211228160_815095844_4464835857" to="450014492_815095844_248454000_815095844" />
	<connection from="450014492_211228160_815095844_4464835857" to="450014492_815095844_211228160_815095844" />
	<connection from="450014492_211228160_815095844_4464835857" to="49533257_815095844_248453997_815095844" />
	<connection from="20282784_4563686643_214983495_4563686643" to="20282784_4563686643_214983495_4563686644" />
	<connection from="20282784_4563686643_214983495_4563686644" to="20282784_4563686643_214983495_4590603044" />
	<connection from="20282784_4563686643_214983495_4590603044" to="20282784_214983495_4590603042_214983495" />
	<connection from="20282784_4563686643_214983495_4590603044" to="20282910_214983495_214984848_214983495" />
	<connection from="22901576_246547246_243490111_246547246" to="22901603_243490111_243490155_243490111" />
	<connection from="20283754_214997411_243461358_214997411" to="22696918_243461358_243460928_243461358" />
	<connection from="20283754_214997411_243461358_214997411" to="20283754_243461358_215000610_243461358" />
	<connection from="20283754_214997411_243461358_214997411" to="20283754_243461358_214997411_243461358" />
	<connection from="550855647_4560323341_4560323340_4560323341" to="550855647_4560323340_4560323339_4560323340" />
	<connection from="550855647_4560323341_4560323340_4560323341" to="20206214_4560323340_213679744_4560323340" />
	<connection from="27866365_209143363_213684106_209143363" to="20206748_213684106_215594971_213684106" />
	<connection from="27866365_209143363_213684106_209143363" to="27866365_213684106_215688289_213684106" />
	<connection from="420883155_206936949_206938520_206936949" to="420883155_206936949_206938520_206938518" />
	<connection from="420883155_206936949_206938520_206938518" to="420883155_206936949_206938520_206938519" />
	<connection from="420883155_206936949_206938520_206938519" to="420883155_206938520_4207764290_206938520" />
	<connection from="20207032_213420811_215693105_213420811" to="22696918_215693105_215691335_215693105" />
	<connection from="20207032_213420811_215693105_213420811" to="20207032_215693105_213685009_215693105" />
	<connection from="22891627_243462745_246279194_243462745" to="22891627_243462745_246279194_1606535559" />
	<connection from="22891627_243462745_246279194_1606535559" to="22891627_243462745_246279194_1606535555" />
	<connection from="22891627_243462745_246279194_1606535555" to="22891627_243462745_246279194_1606535544" />
	<connection from="22891627_243462745_246279194_1606535544" to="22699566_246279194_2303423892_246279194" />
	<connection from="22891627_243462745_246279194_1606535544" to="22891627_246279194_2303423898_246279194" />
	<connection from="20207032_215693105_213685009_215693105" to="20207032_215693105_213685009_215691336" />
	<connection from="20207032_215693105_213685009_215691336" to="20207032_213685009_205155567_213685009" />
	<connection from="20207032_215693105_213685009_215691336" to="22924515_213685009_213685010_213685009" />
	<connection from="22924846_2260624327_246839352_2260624327" to="22924846_2260624327_246839352_2260624305" />
	<connection from="22924846_2260624327_246839352_2260624305" to="216669262_246839352_2260624309_246839352" />
	<connection from="22924846_2260624327_246839352_2260624305" to="22924846_246839352_2260624347_246839352" />
	<connection from="564609316_1918810186_248452986_1918810186" to="564609316_1918810186_248452986_4469417829" />
	<connection from="564609316_1918810186_248452986_4469417829" to="564609316_248452986_1918810186_248452986" />
	<connection from="564609316_1918810186_248452986_4469417829" to="564609316_248452986_211160777_248452986" />
	<connection from="564609316_1918810186_248452986_4469417829" to="23028939_248452986_248452876_248452986" />
	<connection from="23029022_428289551_248453436_428289551" to="23029022_428289551_248453436_4464835444" />
	<connection from="23029022_428289551_248453436_4464835444" to="23029022_248453436_248453435_248453436" />
	<connection from="23029022_428289551_248453436_4464835444" to="253360735_248453436_248453460_248453436" />
	<connection from="22696846_243460912_243460926_243460912" to="22696846_243460926_243460928_243460926" />
	<connection from="22696846_243460912_243460926_243460912" to="20283674_243460926_243461092_243460926" />
	<connection from="449536132_4464835617_4464835613_4464835617" to="449536132_4464835617_4464835613_4464835614" />
	<connection from="449536132_4464835617_4464835613_4464835614" to="449536132_4464835617_4464835613_4464835611" />
	<connection from="449536132_4464835617_4464835613_4464835611" to="449536132_4464835617_4464835613_4464835610" />
	<connection from="449536132_4464835617_4464835613_4464835610" to="449536132_4464835617_4464835613_4464835612" />
	<connection from="449536132_4464835617_4464835613_4464835612" to="36853888_4464835613_528930025_4464835613" />
	<connection from="449536132_4464835617_4464835613_4464835612" to="449536132_4464835613_4464835617_4464835613" />
	<connection from="49533257_248452697_248452897_248452697" to="49533257_248452897_211223728_248452897" />
	<connection from="49533257_248452697_248452897_248452697" to="416510742_248452897_248452604_248452897" />
	<connection from="22696924_243461080_243462031_243461080" to="22696924_243462031_243461619_243462031" />
	<connection from="22696924_243461080_243462031_243461080" to="22696924_243462031_243461080_243462031" />
	<connection from="22696924_243461080_243462031_243461080" to="22696991_243462031_243462014_243462031" />
	<connection from="22696918_213682552_243461907_213682552" to="22696918_243461907_243461946_243461907" />
	<connection from="22696918_213682552_243461907_213682552" to="22696961_243461907_243461932_243461907" />
	<connection from="67515098_215574314_215556848_215574314" to="67515098_215556848_215575522_215556848" />
	<connection from="67515098_215574314_215556848_215574314" to="67515098_215556848_215574314_215556848" />
	<connection from="31761892_215530852_215185006_215530852" to="31761892_215530852_215185006_215004608" />
	<connection from="31761892_215530852_215185006_215004608" to="540512666_215185006_215185003_215185006" />
	<connection from="31761892_215530852_215185006_215004608" to="31761892_215185006_215530852_215185006" />
	<connection from="139993733_248453939_1510251333_248453939" to="139993733_248453939_1510251333_4464835854" />
	<connection from="139993733_248453939_1510251333_4464835854" to="137718967_1510251333_248453990_1510251333" />
	<connection from="139993733_248453939_1510251333_4464835854" to="139993734_1510251333_1534052050_1510251333" />
	<connection from="23029076_1528790080_248454084_1528790080" to="23029076_1528790080_248454084_4464835921" />
	<connection from="23029076_1528790080_248454084_4464835921" to="23029076_1528790080_248454084_4464835688" />
	<connection from="23029076_1528790080_248454084_4464835688" to="23029076_248454084_248454034_248454084" />
	<connection from="23029076_1528790080_248454084_4464835688" to="36854029_248454084_248453990_248454084" />
	<connection from="22703745_215620069_215658521_215620069" to="22703745_215658521_243534380_215658521" />
	<connection from="22703745_215620069_215658521_215620069" to="22703745_215658521_215620069_215658521" />
	<connection from="22703745_215620069_215658521_215620069" to="20316156_215658521_215658508_215658521" />
	<connection from="560113361_215523777_215523779_215523777" to="560113361_215523777_215523779_2245166605" />
	<connection from="560113361_215523777_215523779_2245166605" to="20311206_215523779_215525071_215523779" />
	<connection from="560113361_215523777_215523779_2245166605" to="560113361_215523779_215518594_215523779" />
	<connection from="22697042_243461368_214994705_243461368" to="234411856_214994705_243462147_214994705" />
	<connection from="22697042_243461368_214994705_243461368" to="540512661_214994705_214994696_214994705" />
	<connection from="165657372_632874429_1771967418_632874429" to="165657372_632874429_1771967418_4028044696" />
	<connection from="165657372_632874429_1771967418_4028044696" to="165657372_632874429_1771967418_1771967391" />
	<connection from="165657372_632874429_1771967418_1771967391" to="165657372_632874429_1771967418_1771967421" />
	<connection from="165657372_632874429_1771967418_1771967421" to="561036940_1771967418_211185652_1771967418" />
	<connection from="23028252_247043215_247043327_247043215" to="23028252_247043215_247043327_3560182557" />
	<connection from="23028252_247043215_247043327_3560182557" to="23028252_247043215_247043327_3547410957" />
	<connection from="23028252_247043215_247043327_3547410957" to="23028252_247043215_247043327_3560182578" />
	<connection from="23028252_247043215_247043327_3560182578" to="23028252_247043215_247043327_3560182574" />
	<connection from="23028252_247043215_247043327_3560182574" to="539695293_247043327_247042923_247043327" />
	<connection from="20206748_213683186_213684106_213683186" to="20206748_213683186_213684106_2260624287" />
	<connection from="20206748_213683186_213684106_2260624287" to="20206748_213683186_213684106_2260624276" />
	<connection from="20206748_213683186_213684106_2260624276" to="20206748_213683186_213684106_213684101" />
	<connection from="20206748_213683186_213684106_213684101" to="20206748_213683186_213684106_213684103" />
	<connection from="20206748_213683186_213684106_213684103" to="20206748_213684106_215594971_213684106" />
	<connection from="20206748_213683186_213684106_213684103" to="27866365_213684106_215688289_213684106" />
	<connection from="22703867_243534527_560629334_243534527" to="22703867_560629334_243534527_560629334" />
	<connection from="22703867_243534527_560629334_243534527" to="20312361_560629334_243534604_560629334" />
	<connection from="22703867_243534527_560629334_243534527" to="20312361_560629334_215185003_560629334" />
	<connection from="22696996_246548093_243462047_246548093" to="550841314_243462047_246784510_243462047" />
	<connection from="22696996_246548093_243462047_246548093" to="22918612_243462047_243461364_243462047" />
	<connection from="22696996_246548093_243462047_246548093" to="540512641_243462047_243461085_243462047" />
	<connection from="22696996_246548093_243462047_246548093" to="22696996_243462047_246548093_243462047" />
	<connection from="36842597_211184538_211234751_211184538" to="561036890_211234751_211185850_211234751" />
	<connection from="36842597_211184538_211234751_211184538" to="36842597_211234751_211234071_211234751" />
	<connection from="36842597_211184538_211234751_211184538" to="36842597_211234751_211184538_211234751" />
	<connection from="20312468_215571621_215187142_215571621" to="20312468_215571621_215187142_215571622" />
	<connection from="20312468_215571621_215187142_215571622" to="20295016_215187142_215188523_215187142" />
	<connection from="20312468_215571621_215187142_215571622" to="20312468_215187142_215571621_215187142" />
	<connection from="20312468_215571621_215187142_215571622" to="20312468_215187142_215575518_215187142" />
	<connection from="20312468_215571621_215187142_215571622" to="20295016_215187142_215187141_215187142" />
	<connection from="23029074_248453990_248454035_248453990" to="23029074_248453990_248454035_4464835904" />
	<connection from="23029074_248453990_248454035_4464835904" to="23029074_248454035_248454083_248454035" />
	<connection from="23029074_248453990_248454035_4464835904" to="23029074_248454035_248453990_248454035" />
	<connection from="23029074_248453990_248454035_4464835904" to="23029063_248454035_248454034_248454035" />
	<connection from="215099777_2245166533_3201800445_2245166533" to="215099777_2245166533_3201800445_215520035" />
	<connection from="215099777_2245166533_3201800445_215520035" to="215099777_2245166533_3201800445_209186305" />
	<connection from="215099777_2245166533_3201800445_209186305" to="215099777_3201800445_2245166526_3201800445" />
	<connection from="22900834_243492404_243492403_243492404" to="22699665_243492403_243490543_243492403" />
	<connection from="216669275_2260624327_2260624347_2260624327" to="216669275_2260624327_2260624347_2260624332" />
	<connection from="216669275_2260624327_2260624347_2260624332" to="216669275_2260624327_2260624347_2260624336" />
	<connection from="216669275_2260624327_2260624347_2260624336" to="22924846_2260624347_2260624377_2260624347" />
	<connection from="20206609_213683186_213682561_213683186" to="20206609_213682561_213683186_213682561" />
	<connection from="20206177_213424535_213424795_213424535" to="20183232_213424795_215690489_213424795" />
	<connection from="20206177_213424535_213424795_213424535" to="20206197_213424795_4560323332_213424795" />
	<connection from="20283674_243461092_214997419_243461092" to="20283674_243461092_214997419_214997417" />
	<connection from="20283674_243461092_214997419_214997417" to="540512641_214997419_243461085_214997419" />
	<connection from="20283674_243461092_214997419_214997417" to="20283583_214997419_214995641_214997419" />
	<connection from="20019732_211184536_211184538_211184536" to="20019732_211184536_211184538_1771967349" />
	<connection from="20019732_211184536_211184538_1771967349" to="20019732_211184536_211184538_1771967416" />
	<connection from="20019732_211184536_211184538_1771967416" to="20019732_211184536_211184538_1771967354" />
	<connection from="20019732_211184536_211184538_1771967354" to="36842597_211184538_211234751_211184538" />
	<connection from="20019732_211184536_211184538_1771967354" to="20019732_211184538_248452477_211184538" />
	<connection from="20283674_243461144_214997411_243461144" to="20283674_243461144_214997411_214997409" />
	<connection from="20283674_243461144_214997411_214997409" to="20283674_243461144_214997411_214997410" />
	<connection from="20283674_243461144_214997411_214997410" to="20283754_214997411_214995647_214997411" />
	<connection from="20283674_243461144_214997411_214997410" to="20283754_214997411_243461358_214997411" />
	<connection from="20283674_243461144_214997411_214997410" to="20283674_214997411_243460926_214997411" />
	<connection from="20025603_211294154_1771967408_211294154" to="20025603_211294154_1771967408_211297288" />
	<connection from="20025603_211294154_1771967408_211297288" to="20025603_211294154_1771967408_211297289" />
	<connection from="20025603_211294154_1771967408_211297289" to="20025603_211294154_1771967408_211297290" />
	<connection from="20025603_211294154_1771967408_211297290" to="20019947_1771967408_211190081_1771967408" />
	<connection from="20022171_248452616_211232064_248452616" to="20022171_248452616_211232064_4464835590" />
	<connection from="20022171_248452616_211232064_4464835590" to="20022171_211232064_248453457_211232064" />
	<connection from="20022171_248452616_211232064_4464835590" to="20022198_211232064_211232066_211232064" />
	<connection from="19794907_205270789_206245330_205270789" to="19794907_205270789_206245330_206245323" />
	<connection from="19794907_205270789_206245330_206245323" to="19794907_205270789_206245330_206245326" />
	<connection from="19794907_205270789_206245330_206245326" to="22924846_206245330_2260624327_206245330" />
	<connection from="22891627_246279194_2303423898_246279194" to="22891627_246279194_2303423898_1606535543" />
	<connection from="22891627_246279194_2303423898_1606535543" to="22891627_2303423898_243462744_2303423898" />
	<connection from="540512660_2426678284_2426678283_2426678284" to="540512660_2426678284_2426678283_2303442181" />
	<connection from="540512660_2426678284_2426678283_2303442181" to="540512660_2426678283_243493244_2426678283" />
	<connection from="540512660_2426678284_2426678283_2303442181" to="221242773_2426678283_2302893524_2426678283" />
	<connection from="23028660_248452985_211154078_248452985" to="23028660_211154078_248452985_211154078" />
	<connection from="23028660_248452985_211154078_248452985" to="561036900_211154078_211154083_211154078" />
	<connection from="20312361_215569574_215652665_215569574" to="20315841_215652665_215652663_215652665" />
	<connection from="20312361_215569574_215652665_215569574" to="20312361_215652665_215569573_215652665" />
	<connection from="20312361_215569574_215652665_215569574" to="20312361_215652665_215569574_215652665" />
	<connection from="221307523_2303416503_2325366155_2303416503" to="221307523_2303416503_2325366155_2303421944" />
	<connection from="221307523_2303416503_2325366155_2303421944" to="221307523_2303416503_2325366155_2303421945" />
	<connection from="221307523_2303416503_2325366155_2303421945" to="221307523_2303416503_2325366155_2303421947" />
	<connection from="221307523_2303416503_2325366155_2303421947" to="221307523_2303416503_2325366155_2303421949" />
	<connection from="221307523_2303416503_2325366155_2303421949" to="221307523_2303416503_2325366155_2303421951" />
	<connection from="221307523_2303416503_2325366155_2303421951" to="221307523_2303416503_2325366155_2303421952" />
	<connection from="221307523_2303416503_2325366155_2303421952" to="221307523_2303416503_2325366155_2303421955" />
	<connection from="221307523_2303416503_2325366155_2303421955" to="221307523_2303416503_2325366155_2303421957" />
	<connection from="221307523_2303416503_2325366155_2303421957" to="223665455_2325366155_2325366156_2325366155" />
	<connection from="221307523_2303416503_2325366155_2303421957" to="221307523_2325366155_2303416503_2325366155" />
	<connection from="221307523_2303416503_2325366155_2303421957" to="221307523_2325366155_2325366157_2325366155" />
	<connection from="20312953_243461352_215607964_243461352" to="20312912_215607964_215584169_215607964" />
	<connection from="20022045_2281242221_428298188_2281242221" to="561036918_428298188_248453991_428298188" />
	<connection from="28683194_214987040_2302893524_214987040" to="28683194_214987040_2302893524_1124090288" />
	<connection from="28683194_214987040_2302893524_1124090288" to="28683194_214987040_2302893524_214987041" />
	<connection from="28683194_214987040_2302893524_214987041" to="234411855_2302893524_243493244_2302893524" />
	<connection from="28683194_214987040_2302893524_214987041" to="28683194_2302893524_214987040_2302893524" />
	<connection from="540512669_211234762_211160777_211234762" to="20294499_211160777_215199618_211160777" />
	<connection from="540512669_211234762_211160777_211234762" to="564609316_211160777_248452986_211160777" />
	<connection from="540512669_211234762_211160777_211234762" to="540512669_211160777_211234762_211160777" />
	<connection from="540512669_211234762_211160777_211234762" to="23028796_211160777_248452476_211160777" />
	<connection from="20020195_3452088043_4563693235_3452088043" to="20020195_3452088043_4563693235_3452088046" />
	<connection from="20020195_3452088043_4563693235_3452088046" to="20020195_3452088043_4563693235_4563693232" />
	<connection from="20020195_3452088043_4563693235_4563693232" to="20020195_3452088043_4563693235_4563693233" />
	<connection from="20020195_3452088043_4563693235_4563693233" to="20020195_3452088043_4563693235_4563693234" />
	<connection from="20020195_3452088043_4563693235_4563693234" to="20020195_3452088043_4563693235_4563693237" />
	<connection from="20020195_3452088043_4563693235_4563693237" to="20020195_3452088043_4563693235_4563693238" />
	<connection from="20020195_3452088043_4563693235_4563693238" to="20020195_3452088043_4563693235_4563693240" />
	<connection from="20020195_3452088043_4563693235_4563693240" to="539695291_4563693235_3452088049_4563693235" />
	<connection from="304633096_248547407_248547360_248547407" to="304633096_248547407_248547360_248451984" />
	<connection from="304633096_248547407_248547360_248451984" to="304633096_248547360_248547407_248547360" />
	<connection from="304633096_248547407_248547360_248451984" to="23028634_248547360_248451982_248547360" />
	<connection from="22901192_2309358712_243490243_2309358712" to="22699489_243490243_243490242_243490243" />
	<connection from="22901192_2309358712_243490243_2309358712" to="22901192_243490243_243490349_243490243" />
	<connection from="22901192_2309358712_243490243_2309358712" to="22901192_243490243_2309358712_243490243" />
	<connection from="22932477_247043345_247043357_247043345" to="22932477_247043357_247043376_247043357" />
	<connection from="22932477_247043345_247043357_247043345" to="22932481_247043357_3547333218_247043357" />
	<connection from="19735270_205157425_2987835480_205157425" to="19735270_2987835480_205157425_2987835480" />
	<connection from="19735270_205157425_2987835480_205157425" to="19735270_2987835480_1124130473_2987835480" />
	<connection from="22699499_243490354_243490350_243490354" to="234411854_243490350_2309358719_243490350" />
	<connection from="22699499_243490354_243490350_243490354" to="234411854_243490350_243462749_243490350" />
	<connection from="22699499_243490354_243490350_243490354" to="22699499_243490350_243490354_243490350" />
	<connection from="20312146_215557902_215574311_215557902" to="20312530_215574311_215574310_215574311" />
	<connection from="20312146_215557902_215574311_215557902" to="20312146_215574311_215561455_215574311" />
	<connection from="416509243_248454437_211199771_248454437" to="416509243_248454437_211199771_248454436" />
	<connection from="416509243_248454437_211199771_248454436" to="416509243_248454437_211199771_248454435" />
	<connection from="416509243_248454437_211199771_248454435" to="416509243_248454437_211199771_248454434" />
	<connection from="416509243_248454437_211199771_248454434" to="416509243_248454437_211199771_248454433" />
	<connection from="416509243_248454437_211199771_248454433" to="416509243_248454437_211199771_248454432" />
	<connection from="416509243_248454437_211199771_248454432" to="20019904_211199771_211188991_211199771" />
	<connection from="23029076_248454034_1595426836_248454034" to="23029076_248454034_1595426836_4464835648" />
	<connection from="23029076_248454034_1595426836_4464835648" to="23029076_248454034_1595426836_4464835808" />
	<connection from="23029076_248454034_1595426836_4464835808" to="146271574_1595426836_248454053_1595426836" />
	<connection from="23029076_248454034_1595426836_4464835808" to="23029076_1595426836_248454083_1595426836" />
	<connection from="20282854_4590603043_214980073_4590603043" to="20282854_4590603043_214980073_4563686651" />
	<connection from="20282854_4590603043_214980073_4563686651" to="20282838_214980073_214982862_214980073" />
	<connection from="20282854_4590603043_214980073_4563686651" to="20282597_214980073_214979872_214980073" />
	<connection from="20311206_215523779_215525071_215523779" to="20311206_215523779_215525071_2245166599" />
	<connection from="20311206_215523779_215525071_2245166599" to="20311206_215523779_215525071_2245166597" />
	<connection from="20311206_215523779_215525071_2245166597" to="20311131_215525071_215520912_215525071" />
	<connection from="234411854_243490432_243490601_243490432" to="234411854_243490601_243462748_243490601" />
	<connection from="234411854_243490432_243490601_243490432" to="234411854_243490601_243490432_243490601" />
	<connection from="234411854_243490432_243490601_243490432" to="22699516_243490601_243490600_243490601" />
	<connection from="22696952_243461819_215611682_243461819" to="22923552_215611682_215610397_215611682" />
	<connection from="22696952_243461819_215611682_243461819" to="22923552_215611682_215584171_215611682" />
	<connection from="22696952_243461819_215611682_243461819" to="27881525_215611682_306117633_215611682" />
	<connection from="22696952_243461819_215611682_243461819" to="20313941_215611682_215611683_215611682" />
	<connection from="22708516_215513248_243564118_215513248" to="22708516_215513248_243564118_1174397669" />
	<connection from="22708516_215513248_243564118_1174397669" to="22708516_215513248_243564118_1174397649" />
	<connection from="22708516_215513248_243564118_1174397649" to="22707767_243564118_243535183_243564118" />
	<connection from="22708516_215513248_243564118_1174397649" to="22708516_243564118_215513248_243564118" />
	<connection from="22708516_215513248_243564118_1174397649" to="22708516_243564118_243535145_243564118" />
	<connection from="20206748_215691332_215692277_215691332" to="20206748_215691332_215692277_213684115" />
	<connection from="20206748_215691332_215692277_213684115" to="20317955_215692277_215690007_215692277" />
	<connection from="20206748_215691332_215692277_213684115" to="20206748_215692277_213684119_215692277" />
	<connection from="44380004_248453915_248454095_248453915" to="23029080_248454095_248454094_248454095" />
	<connection from="44380004_248453915_248454095_248453915" to="44380004_248454095_248453916_248454095" />
	<connection from="234411856_243462147_246781213_243462147" to="234411856_243462147_246781213_214994709" />
	<connection from="234411856_243462147_246781213_214994709" to="234411856_243462147_246781213_214994711" />
	<connection from="234411856_243462147_246781213_214994711" to="234411856_243462147_246781213_246780984" />
	<connection from="234411856_243462147_246781213_246780984" to="22918456_246781213_246781214_246781213" />
	<connection from="234411856_243462147_246781213_246780984" to="234411856_246781213_243462147_246781213" />
	<connection from="234411856_243462147_246781213_246780984" to="550841314_246781213_243462076_246781213" />
	<connection from="180600787_209149373_211175134_209149373" to="180600787_209149373_211175134_209149374" />