<?xml version="1.0" ?>
<!-- Generated by VSimRTI -->
<routes>
	<vType id="default" length="7.5" maxSpeed="50" minGap="2.0" carFollowModel="Krauss" accel="0.80" decel="4.5" sigma="0.5" tau="1"/>
	<route id="1" edges="415456329_211228161_248454442_211227713 415456329_211228161_248454442_211227714 415456329_211228161_248454442_4464835883 415456329_211228161_248454442_4464835886 415456329_211228161_248454442_4464835990 23029130_248454442_248454444_248454442 23029130_248454442_248454444_4464835991 23029130_248454442_248454444_248454443 23029131_248454444_248454437_248454444 23029131_248454444_248454437_4464835992 23029131_248454444_248454437_4464835994 416509243_248454437_211199771_248454437 416509243_248454437_211199771_248454436 416509243_248454437_211199771_248454435 416509243_248454437_211199771_248454434 416509243_248454437_211199771_248454433 416509243_248454437_211199771_248454432 20019904_211199771_211188991_211199771 20019904_211188991_211188986_211188991 20019904_211188991_211188986_211199915 20019904_211188986_211199762_211188986 165657372_211199762_632874410_211199762 165657372_211199762_632874410_211192862 165657372_211199762_632874410_4028044712 165657372_211199762_632874410_4028044713 165657372_211199762_632874410_4028044719 165657372_632874410_632874429_632874410 165657372_632874410_632874429_4028044717 165657372_632874429_1771967418_632874429 165657372_632874429_1771967418_4028044696 165657372_632874429_1771967418_1771967391 165657372_632874429_1771967418_1771967421 561036940_1771967418_211185652_1771967418 20019765_211185652_211185654_211185652 20019765_211185652_211185654_1771967415 20019765_211185652_211185654_211201742 20019765_211185652_211185654_1771967419 20019765_211185652_211185654_1771967406 20020334_211185654_211184545_211185654 561036894_211184545_211184536_211184545 561036894_211184545_211184536_1771967389 561036894_211184545_211184536_1771967378 561036894_211184545_211184536_1771967384 561036894_211184545_211184536_1771967373 20019732_211184536_211184538_211184536 20019732_211184536_211184538_1771967349 20019732_211184536_211184538_1771967416 20019732_211184536_211184538_1771967354 20019732_211184538_248452477_211184538 20019732_211184538_248452477_1771967379 23028796_248452477_248452476_248452477 23028796_248452476_211160777_248452476 20294499_211160777_215199618_211160777 20295734_215199618_215199568_215199618 20295730_215199568_215178025_215199568 20295730_215199568_215178025_215176350 20295730_215199568_215178025_4023551147 20294515_215178025_215178029_215178025 20294515_215178025_215178029_215176687 20294515_215178025_215178029_4011932941 20294515_215178025_215178029_4011932952 20294515_215178025_215178029_4011932953 550841307_215178029_215178027_215178029 550841307_215178029_215178027_4011932942 550841307_215178029_215178027_4011932943 550841307_215178029_215178027_215176692 550841307_215178029_215178027_4011932944 550841307_215178029_215178027_4011932945 20294662_215178027_215182732_215178027 20294806_215182732_215182733_215182732 20294806_215182732_215182733_633400032 20294806_215182732_215182733_633417187 20294812_215182733_4023632913_215182733 20294812_215182733_4023632913_4023614283 540512667_4023632913_4023614263_4023632913 540512667_4023632913_4023614263_4028073742 540512667_4023632913_4023614263_4023614261 540512667_4023632913_4023614263_4028073743 540512667_4023632913_4023614263_4023614262 540512667_4023614263_215181640_4023614263 540512667_4023614263_215181640_215180694 540512667_4023614263_215181640_4011932931 540512667_4023614263_215181640_4011932932 540512667_4023614263_215181640_4011932933 20294829_215181640_215574313_215181640 20294829_215574313_215557899_215574313 20312065_215557899_215556848_215557899 67515098_215556848_215575522_215556848 67515098_215575522_215555606_215575522 67515098_215575522_215555606_2326354717 20312361_215555606_243534417_215555606 20312361_215555606_243534417_215569568 454504672_243534417_3129577528_243534417 454504672_243534417_3129577528_243534506 454504672_243534417_3129577528_243534505 454504672_243534417_3129577528_243534504 454504672_243534417_3129577528_243534503 454504672_243534417_3129577528_243534502 526297781_3129577528_3129577534_3129577528 526297782_3129577534_5118313739_3129577534 307756926_5118313739_3129577527_5118313739" />
	<route id="2" edges="415456329_211228161_248454442_211227713 415456329_211228161_248454442_211227714 415456329_211228161_248454442_4464835883 415456329_211228161_248454442_4464835886 415456329_211228161_248454442_4464835990 23029130_248454442_248454444_248454442 23029130_248454442_248454444_4464835991 23029130_248454442_248454444_248454443 23029131_248454444_248454437_248454444 23029131_248454444_248454437_4464835992 23029131_248454444_248454437_4464835994 561036944_248454437_248454459_248454437 561036944_248454437_248454459_4464835996 23029132_248454459_4560852768_248454459 23029132_248454459_4560852768_248454460 20025444_4560852768_211294154_4560852768 20025603_211294154_1771967408_211294154 20025603_211294154_1771967408_211297288 20025603_211294154_1771967408_211297289 20025603_211294154_1771967408_211297290 20019947_1771967408_211190081_1771967408 20019947_211190081_1771967362_211190081 20019947_211190081_1771967362_1771967374 20019947_211190081_1771967362_211201070 20019947_1771967362_211190077_1771967362 20019947_1771967362_211190077_1771967369 20020017_211190077_211191300_211190077 20020017_211190077_211191300_211191296 20020017_211190077_211191300_211191297 20020017_211190077_211191300_211191298 20020017_211190077_211191300_2491933825 20020035_211191300_632874414_211191300 20020035_632874414_632874420_632874414 20020035_632874414_632874420_632874415 20020035_632874414_632874420_4028613090 20020035_632874414_632874420_632874417 20020035_632874420_248547127_632874420 23038600_248547127_248452151_248547127 23038600_248547127_248452151_248547131 23038600_248547127_248452151_248547132 23028745_248452151_211194997_248452151 23028745_248452151_211194997_4028613135 460765816_211194997_211194992_211194997 539695291_211194992_3452088051_211194992 539695291_211194992_3452088051_3452088050 539695291_211194992_3452088051_4563693229 460765813_3452088051_211203276_3452088051 539697844_211203276_248452456_211203276 23028593_248452456_211185664_248452456 539695290_211185664_1771967418_211185664 539695290_211185664_1771967418_1771967393 539695290_211185664_1771967418_211185667 539695290_211185664_1771967418_1771967413 539695290_211185664_1771967418_211201750 561036940_1771967418_211185652_1771967418 20019765_211185652_211185654_211185652 20019765_211185652_211185654_1771967415 20019765_211185652_211185654_211201742 20019765_211185652_211185654_1771967419 20019765_211185652_211185654_1771967406 20020334_211185654_211184545_211185654 561036894_211184545_211184536_211184545 561036894_211184545_211184536_1771967389 561036894_211184545_211184536_1771967378 561036894_211184545_211184536_1771967384 561036894_211184545_211184536_1771967373 20019732_211184536_211184538_211184536 20019732_211184536_211184538_1771967349 20019732_211184536_211184538_1771967416 20019732_211184536_211184538_1771967354 20019732_211184538_248452477_211184538 20019732_211184538_248452477_1771967379 23028796_248452477_248452476_248452477 23028796_248452476_211160777_248452476 20294499_211160777_215199618_211160777 20295734_215199618_215199568_215199618 20295730_215199568_215178025_215199568 20295730_215199568_215178025_215176350 20295730_215199568_215178025_4023551147 20294515_215178025_215178029_215178025 20294515_215178025_215178029_215176687 20294515_215178025_215178029_4011932941 20294515_215178025_215178029_4011932952 20294515_215178025_215178029_4011932953 550841307_215178029_215178027_215178029 550841307_215178029_215178027_4011932942 550841307_215178029_215178027_4011932943 550841307_215178029_215178027_215176692 550841307_215178029_215178027_4011932944 550841307_215178029_215178027_4011932945 20294662_215178027_215182732_215178027 20294806_215182732_215182733_215182732 20294806_215182732_215182733_633400032 20294806_215182732_215182733_633417187 20294812_215182733_4023632913_215182733 20294812_215182733_4023632913_4023614283 540512667_4023632913_4023614263_4023632913 540512667_4023632913_4023614263_4028073742 540512667_4023632913_4023614263_4023614261 540512667_4023632913_4023614263_4028073743 540512667_4023632913_4023614263_4023614262 540512667_4023614263_215181640_4023614263 540512667_4023614263_215181640_215180694 540512667_4023614263_215181640_4011932931 540512667_4023614263_215181640_4011932932 540512667_4023614263_215181640_4011932933 20294829_215181640_215574313_215181640 20294829_215574313_215557899_215574313 20312065_215557899_215556848_215557899 67515098_215556848_215575522_215556848 67515098_215575522_215555606_215575522 67515098_215575522_215555606_2326354717 20312361_215555606_243534417_215555606 20312361_215555606_243534417_215569568 454504672_243534417_3129577528_243534417 454504672_243534417_3129577528_243534506 454504672_243534417_3129577528_243534505 454504672_243534417_3129577528_243534504 454504672_243534417_3129577528_243534503 454504672_243534417_3129577528_243534502 526297781_3129577528_3129577534_3129577528 526297782_3129577534_5118313739_3129577534 307756926_5118313739_3129577527_5118313739" />
</routes>