<connections>
	<connection from="23995140_260162539_260162554_260162539" to="23995146_260162554_260147854_260162554" />
	<connection from="23995140_260162539_260162554_260162539" to="23995140_260162554_260162553_260162554" />
	<connection from="23995140_260162539_260162554_260162539" to="23995140_260162554_260162539_260162554" />
	<connection from="23995140_260162539_260162558_260162539" to="23995148_260162558_260162556_260162558" />
	<connection from="23995140_260162539_260162558_260162539" to="23995140_260162558_260162562_260162558" />
	<connection from="23995140_260162539_260162558_260162539" to="23995140_260162558_260162539_260162558" />
	<connection from="116570245_1313885509_866614488_1313885509" to="116570245_1313885509_866614488_866613837" />
	<connection from="116570245_1313885509_866614488_866613837" to="116570245_1313885509_866614488_2026362890" />
	<connection from="116570245_1313885509_866614488_2026362890" to="116570245_1313885509_866614488_866613502" />
	<connection from="116570245_1313885509_866614488_866613502" to="116570245_1313885509_866614488_2026362862" />
	<connection from="116570245_1313885509_866614488_2026362862" to="116570245_1313885509_866614488_1313885462" />
	<connection from="116570245_1313885509_866614488_1313885462" to="116570249_866614488_866613702_866614488" />
	<connection from="64503415_793130975_41239986_793130975" to="64503415_793130975_41239986_311589061" />
	<connection from="64503415_793130975_41239986_311589061" to="50833760_41239986_41239973_41239986" />
	<connection from="64503415_793130975_41239986_311589061" to="64503415_41239986_793130975_41239986" />
	<connection from="64503415_793130975_41239986_311589061" to="64503415_41239986_41239997_41239986" />
	<connection from="64503415_793130975_41239986_311589061" to="50833760_41239986_648320964_41239986" />
	<connection from="52092909_134845511_134859062_134845511" to="23750759_134859062_257323664_134859062" />
	<connection from="52092909_134845511_134859062_134845511" to="52092909_134859062_134845511_134859062" />
	<connection from="52092909_134845511_134859062_134845511" to="14134205_134859062_134639615_134859062" />
	<connection from="23995137_260147853_260162523_260147853" to="23995137_260147853_260162523_260162517" />
	<connection from="23995137_260147853_260162523_260162517" to="23995137_260147853_260162523_362769119" />
	<connection from="23995137_260147853_260162523_362769119" to="23995137_260147853_260162523_260162519" />
	<connection from="23995137_260147853_260162523_260162519" to="23995137_260147853_260162523_260162521" />
	<connection from="23995137_260147853_260162523_260162521" to="23995138_260162523_260162531_260162523" />
	<connection from="23995137_260147853_260162523_260162521" to="23995137_260162523_260147853_260162523" />
	<connection from="26176469_51557267_51559755_51557267" to="26176469_51559755_51557267_51559755" />
	<connection from="26176469_51557267_51559755_51557267" to="26176488_51559755_51559754_51559755" />
	<connection from="9658128_73631554_73659752_73631554" to="9534506_73659752_73659750_73659752" />
	<connection from="9658128_73631554_73659752_73631554" to="9658128_73659752_73631554_73659752" />
	<connection from="9658128_73631554_73659752_73631554" to="9534506_73659752_73659754_73659752" />
	<connection from="5653438_41240746_41240737_41240746" to="5653438_41240737_41240741_41240737" />
	<connection from="5653438_41240746_41240737_41240746" to="5563333_41240737_41240731_41240737" />
	<connection from="5653438_41240746_41240737_41240746" to="5653438_41240737_41240746_41240737" />
	<connection from="15807806_158834451_158834452_158834451" to="15807833_158834452_158834787_158834452" />
	<connection from="15807806_158834451_158834452_158834451" to="15807806_158834452_158834451_158834452" />
	<connection from="15807806_158834451_158834452_158834451" to="15807833_158834452_158834961_158834452" />
	<connection from="15807806_158834451_158834452_158834451" to="15807806_158834452_338327248_158834452" />
	<connection from="50833760_41239986_41239973_41239986" to="50833760_41239986_41239973_2376910140" />
	<connection from="50833760_41239986_41239973_2376910140" to="50833760_41239986_41239973_41239982" />
	<connection from="50833760_41239986_41239973_41239982" to="50833760_41239973_41239986_41239973" />
	<connection from="27566897_2679401899_302687815_2679401899" to="27566862_302687815_41239997_302687815" />
	<connection from="27566897_2679401899_302687815_2679401899" to="27566897_302687815_2679401899_302687815" />
	<connection from="27566897_2679401899_302687815_2679401899" to="24212609_302687815_260147840_302687815" />
	<connection from="8162645_1169625246_41240529_1169625246" to="8162645_1169625246_41240529_41240523" />
	<connection from="8162645_1169625246_41240529_41240523" to="5563326_41240529_41240554_41240529" />
	<connection from="8162645_1169625246_41240529_41240523" to="5563325_41240529_41240542_41240529" />
	<connection from="8162645_1169625246_41240529_41240523" to="8162645_41240529_1169625246_41240529" />
	<connection from="8162645_1169625246_41240529_41240523" to="5563330_41240529_41240563_41240529" />
	<connection from="8162640_41240332_41240325_41240332" to="8162640_41240325_41240315_41240325" />
	<connection from="8162640_41240332_41240325_41240332" to="5563321_41240325_41240343_41240325" />
	<connection from="8162640_41240332_41240325_41240332" to="8162640_41240325_41240332_41240325" />
	<connection from="15807959_158839366_158837965_158839366" to="15807883_158837965_158834794_158837965" />
	<connection from="15807959_158839366_158837965_158839366" to="15807959_158837965_158839366_158837965" />
	<connection from="15807959_158839366_158837965_158839366" to="15807959_158837965_158842505_158837965" />
	<connection from="15807959_158839366_158837965_158839366" to="15807883_158837965_158837646_158837965" />
	<connection from="5563321_41240350_41240297_41240350" to="5563315_41240297_41240302_41240297" />
	<connection from="5563321_41240350_41240297_41240350" to="5563321_41240297_41240350_41240297" />
	<connection from="5563321_41240350_41240297_41240350" to="5563315_41240297_41240292_41240297" />
	<connection from="239819461_1313885426_26971236_1313885426" to="239819461_1313885426_26971236_258778935" />
	<connection from="239819461_1313885426_26971236_258778935" to="239819461_1313885426_26971236_2026362838" />
	<connection from="239819461_1313885426_26971236_2026362838" to="239819461_1313885426_26971236_26971235" />
	<connection from="239819461_1313885426_26971236_26971235" to="4482217_26971236_59332188_26971236" />
	<connection from="34621021_402340569_402340568_402340569" to="34621021_402340568_402340569_402340568" />
	<connection from="23995139_260162555_260162556_260162555" to="23995139_260162556_260162561_260162556" />
	<connection from="23995139_260162555_260162556_260162555" to="23995139_260162556_260162555_260162556" />
	<connection from="23995139_260162555_260162556_260162555" to="23995148_260162556_260162558_260162556" />
	<connection from="9532209_73603958_73601720_73603958" to="9532209_73603958_73601720_73603957" />
	<connection from="9532209_73603958_73601720_73603957" to="9532209_73603958_73601720_853827020" />
	<connection from="9532209_73603958_73601720_853827020" to="9532209_73603958_73601720_73603956" />
	<connection from="9532209_73603958_73601720_73603956" to="9532209_73603958_73601720_73603955" />
	<connection from="9532209_73603958_73601720_73603955" to="9531655_73601720_73609295_73601720" />
	<connection from="9532209_73603958_73601720_73603955" to="9531655_73601720_73631556_73601720" />
	<connection from="9532209_73603958_73601720_73603955" to="9532209_73601720_73603958_73601720" />
	<connection from="9533717_73643615_73603962_73643615" to="9532209_73603962_73603961_73603962" />
	<connection from="9533717_73643615_73603962_73643615" to="9533717_73603962_73637089_73603962" />
	<connection from="9533717_73643615_73603962_73643615" to="9532209_73603962_73662688_73603962" />
	<connection from="9533717_73643615_73603962_73643615" to="9533717_73603962_73643615_73603962" />
	<connection from="64386552_41240214_41240204_41240214" to="64386552_41240214_41240204_792270064" />
	<connection from="64386552_41240214_41240204_792270064" to="64386552_41240214_41240204_33965062" />
	<connection from="64386552_41240214_41240204_33965062" to="64386552_41240214_41240204_2407315926" />
	<connection from="64386552_41240214_41240204_2407315926" to="64386552_41240214_41240204_41240209" />
	<connection from="64386552_41240214_41240204_41240209" to="64386552_41240204_41240214_41240204" />
	<connection from="64386552_41240214_41240204_41240209" to="5563314_41240204_41240154_41240204" />
	<connection from="9658611_75661835_75661834_75661835" to="9658611_75661834_75661835_75661834" />
	<connection from="9531655_73631556_73601720_73631556" to="9531655_73601720_73609295_73601720" />
	<connection from="9531655_73631556_73601720_73631556" to="9531655_73601720_73631556_73601720" />
	<connection from="9531655_73631556_73601720_73631556" to="9532209_73601720_73603958_73601720" />
	<connection from="15744374_157563031_157564457_157563031" to="15744374_157563031_157564457_2614624070" />
	<connection from="15744374_157563031_157564457_2614624070" to="15744374_157564457_157564458_157564457" />
	<connection from="15744374_157563031_157564457_2614624070" to="15744374_157564457_157563031_157564457" />
	<connection from="15744374_157563031_157564457_2614624070" to="255782335_157564457_157566050_157564457" />
	<connection from="15744374_157563031_157564457_2614624070" to="255782335_157564457_2614643913_157564457" />
	<connection from="26176469_51558500_73506957_51558500" to="26176469_51558500_73506957_2250683384" />
	<connection from="26176469_51558500_73506957_2250683384" to="26176072_73506957_97839198_73506957" />
	<connection from="26176469_51558500_73506957_2250683384" to="26176469_73506957_51558500_73506957" />
	<connection from="15742231_134691197_134684859_134691197" to="15742231_134684859_134690728_134684859" />
	<connection from="15742231_134691197_134684859_134691197" to="15742231_134684859_134691197_134684859" />
	<connection from="15742231_134691197_134684859_134691197" to="14118745_134684859_73636304_134684859" />
	<connection from="15742231_134691197_134684859_134691197" to="14118745_134684859_134684860_134684859" />
	<connection from="9535658_73683087_73683089_73683087" to="15743869_73683089_157549893_73683089" />
	<connection from="9535658_73683087_73683089_73683087" to="9535658_73683089_73683087_73683089" />
	<connection from="9535658_73683087_73683089_73683087" to="9535658_73683089_73683094_73683089" />
	<connection from="9535658_73683082_73683079_73683082" to="9535658_73683079_73683076_73683079" />
	<connection from="9535658_73683082_73683079_73683082" to="14123150_73683079_134698734_73683079" />
	<connection from="9535658_73683082_73683079_73683082" to="9535658_73683079_73683082_73683079" />
	<connection from="9535658_73683082_73683079_73683082" to="15742045_73683079_134698737_73683079" />
	<connection from="34621027_402340582_402340583_402340582" to="34621027_402340583_402340582_402340583" />
	<connection from="15808339_158849656_158849659_158849656" to="15808339_158849656_158849659_388308075" />
	<connection from="15808339_158849656_158849659_388308075" to="15808339_158849656_158849659_158849657" />
	<connection from="15808339_158849656_158849659_158849657" to="15808339_158849656_158849659_158849658" />
	<connection from="15808339_158849656_158849659_158849658" to="15808342_158849659_29768621_158849659" />
	<connection from="15808339_158849656_158849659_158849658" to="15808342_158849659_158849832_158849659" />
	<connection from="15808339_158849656_158849659_158849658" to="15808339_158849659_158849656_158849659" />
	<connection from="23995154_260162571_260162582_260162571" to="23995154_260162582_260162571_260162582" />
	<connection from="23995144_260162551_260162552_260162551" to="23995140_260162552_260162553_260162552" />
	<connection from="23995144_260162551_260162552_260162551" to="23995140_260162552_260162538_260162552" />
	<connection from="23995144_260162551_260162552_260162551" to="23995144_260162552_260162551_260162552" />
	<connection from="14123399_134693513_134694322_134693513" to="14122919_134694322_134694323_134694322" />
	<connection from="14123399_134693513_134694322_134693513" to="14123399_134694322_134693513_134694322" />
	<connection from="14123399_134693513_134694322_134693513" to="14122919_134694322_29768632_134694322" />
	<connection from="14123399_134693513_134694322_134693513" to="14123399_134694322_134695391_134694322" />
	<connection from="9658611_75661835_75661837_75661835" to="9658611_75661835_75661837_2509637418" />
	<connection from="9658611_75661835_75661837_2509637418" to="14122045_75661837_134680815_75661837" />
	<connection from="9658611_75661835_75661837_2509637418" to="9658611_75661837_75661835_75661837" />
	<connection from="9658611_75661835_75661837_2509637418" to="9658611_75661837_75661838_75661837" />
	<connection from="41409049_157512393_502949823_157512393" to="41409049_502949823_157512393_502949823" />
	<connection from="15807951_158840869_158842345_158840869" to="15807951_158842345_158840869_158842345" />
	<connection from="47431897_603698751_157571608_603698751" to="47431897_603698751_157571608_503700382" />
	<connection from="47431897_603698751_157571608_503700382" to="47431897_603698751_157571608_157571607" />
	<connection from="47431897_603698751_157571608_157571607" to="9659083_157571608_157569366_157571608" />
	<connection from="47431897_603698751_157571608_157571607" to="15744641_157571608_157572234_157571608" />
	<connection from="47431897_603698751_157571608_157571607" to="47431897_157571608_603698751_157571608" />
	<connection from="47431897_603698751_157571608_157571607" to="9659083_157571608_75670656_157571608" />
	<connection from="23995154_260162571_260162579_260162571" to="50833761_260162579_260162575_260162579" />
	<connection from="23995154_260162571_260162579_260162571" to="50833761_260162579_648320960_260162579" />
	<connection from="23995154_260162571_260162579_260162571" to="23995154_260162579_260162571_260162579" />
	<connection from="48528411_731909065_29768635_731909065" to="48528411_731909065_29768635_29768634" />
	<connection from="48528411_731909065_29768635_29768634" to="48528411_731909065_29768635_731909066" />
	<connection from="48528411_731909065_29768635_731909066" to="48528411_29768635_29768636_29768635" />
	<connection from="48528411_731909065_29768635_731909066" to="35389371_29768635_134692189_29768635" />
	<connection from="48528411_731909065_29768635_731909066" to="48528411_29768635_731909065_29768635" />
	<connection from="48528411_731909065_29768635_731909066" to="35389371_29768635_134648896_29768635" />
	<connection from="48528411_731909065_29768633_731909065" to="48528411_29768633_29768632_29768633" />
	<connection from="48528411_731909065_29768633_731909065" to="48528411_29768633_731909065_29768633" />
	<connection from="48528411_731909065_29768633_731909065" to="14122860_29768633_134655645_29768633" />
	<connection from="48528411_731909065_29768633_731909065" to="14122860_29768633_134693513_29768633" />
	<connection from="248048351_866614062_866614198_866614062" to="175600505_866614198_866613841_866614198" />
	<connection from="34621027_402340582_402340581_402340582" to="34621027_402340581_402340582_402340581" />
	<connection from="9534678_73663097_73661067_73663097" to="9534678_73661067_73663097_73661067" />
	<connection from="9534678_73663097_73661067_73663097" to="9534566_73661067_73640193_73661067" />
	<connection from="9534678_73663097_73661067_73663097" to="9535658_73661067_73683072_73661067" />
	<connection from="9534678_73663097_73661067_73663097" to="9534678_73661067_73662688_73661067" />
	<connection from="14123399_75683847_134698726_75683847" to="14123399_134698726_75683847_134698726" />
	<connection from="14123399_75683847_134698726_75683847" to="14123150_134698726_134698729_134698726" />
	<connection from="14123399_75683847_134698726_75683847" to="14123399_134698726_134696961_134698726" />
	<connection from="14123399_75683847_134698726_75683847" to="14123150_134698726_134695868_134698726" />
	<connection from="23995139_260147854_260162555_260147854" to="23995139_260162555_260147854_260162555" />
	<connection from="23995139_260147854_260162555_260147854" to="23995147_260162555_260162539_260162555" />
	<connection from="23995139_260147854_260162555_260147854" to="23995139_260162555_260162556_260162555" />
	<connection from="122407198_41240085_41240090_41240085" to="122407198_41240085_41240090_262166769" />
	<connection from="122407198_41240085_41240090_262166769" to="122407198_41240090_41240085_41240090" />
	<connection from="122407198_41240085_41240090_262166769" to="5563314_41240090_41240154_41240090" />
	<connection from="15807806_158834460_158837959_158834460" to="15807806_158837959_158834460_158837959" />
	<connection from="15807806_158834460_158837959_158834460" to="15807883_158837959_158837958_158837959" />
	<connection from="15807806_158834460_158837959_158834460" to="15807883_158837959_158837392_158837959" />
	<connection from="15807806_158834460_158837959_158834460" to="15807806_158837959_157575368_158837959" />
	<connection from="14133806_2102485065_2102485066_2102485065" to="14133806_2102485066_2102485065_2102485066" />
	<connection from="14133806_2102485065_2102485066_2102485065" to="51193521_2102485066_134843301_2102485066" />
	<connection from="14133806_2102485065_2102485066_2102485065" to="14133806_2102485066_134851843_2102485066" />
	<connection from="105202938_1212318678_297428879_1212318678" to="105202938_1212318678_297428879_1212318665" />
	<connection from="105202938_1212318678_297428879_1212318665" to="105202938_297428879_1212318678_297428879" />
	<connection from="15744417_157566050_157566051_157566050" to="15744417_157566051_157566053_157566051" />
	<connection from="15744417_157566050_157566051_157566050" to="15744760_157566051_157564458_157566051" />
	<connection from="15744417_157566050_157566051_157566050" to="15744417_157566051_157566050_157566051" />
	<connection from="24212619_262166729_262166750_262166729" to="24212617_262166750_262166751_262166750" />
	<connection from="24212619_262166729_262166750_262166729" to="24212619_262166750_262166748_262166750" />
	<connection from="24212619_262166729_262166750_262166729" to="24212619_262166750_262166729_262166750" />
	<connection from="24212619_262166729_262166750_262166729" to="24212617_262166750_262166759_262166750" />
	<connection from="24726482_338360936_268749283_338360936" to="24726482_268749283_338360936_268749283" />
	<connection from="24726482_338360936_268749283_338360936" to="24726697_268749283_157554501_268749283" />
	<connection from="24726482_338360936_268749283_338360936" to="24726482_268749283_268749218_268749283" />
	<connection from="121677915_26971273_1313885544_26971273" to="121677915_26971273_1313885544_1871145815" />
	<connection from="121677915_26971273_1313885544_1871145815" to="121677915_26971273_1313885544_2314374757" />
	<connection from="121677915_26971273_1313885544_2314374757" to="121677915_26971273_1313885544_2526390860" />
	<connection from="121677915_26971273_1313885544_2526390860" to="73017987_1313885544_866614141_1313885544" />
	<connection from="121677915_26971273_1313885544_2526390860" to="121677915_1313885544_59332155_1313885544" />
	<connection from="192079312_1313885444_2026362889_1313885444" to="192079312_1313885444_2026362889_866614680" />
	<connection from="192079312_1313885444_2026362889_866614680" to="192079312_1313885444_2026362889_866614059" />
	<connection from="192079312_1313885444_2026362889_866614059" to="192079312_1313885444_2026362889_866614247" />
	<connection from="192079312_1313885444_2026362889_866614247" to="192079312_1313885444_2026362889_866614432" />
	<connection from="192079312_1313885444_2026362889_866614432" to="192079312_1313885444_2026362889_1313885400" />
	<connection from="192079312_1313885444_2026362889_1313885400" to="192079312_1313885444_2026362889_866613856" />
	<connection from="192079312_1313885444_2026362889_866613856" to="192079312_1313885444_2026362889_866614523" />
	<connection from="192079312_1313885444_2026362889_866614523" to="192079312_1313885444_2026362889_1313885549" />
	<connection from="192079312_1313885444_2026362889_1313885549" to="192079312_1313885444_2026362889_866613565" />
	<connection from="192079312_1313885444_2026362889_866613565" to="192079312_1313885444_2026362889_1313885422" />
	<connection from="192079312_1313885444_2026362889_1313885422" to="192079312_1313885444_2026362889_1313885416" />
	<connection from="192079312_1313885444_2026362889_1313885416" to="192079312_1313885444_2026362889_2026362894" />
	<connection from="192079312_1313885444_2026362889_2026362894" to="192079312_1313885444_2026362889_2026362892" />
	<connection from="192079312_1313885444_2026362889_2026362892" to="192079312_1313885444_2026362889_866613918" />
	<connection from="192079312_1313885444_2026362889_866613918" to="192079312_1313885444_2026362889_866614131" />
	<connection from="192079312_1313885444_2026362889_866614131" to="192079312_1313885444_2026362889_2026362887" />
	<connection from="192079312_1313885444_2026362889_2026362887" to="192079312_1313885444_2026362889_866613552" />
	<connection from="192079312_1313885444_2026362889_866613552" to="192079312_1313885444_2026362889_2026362882" />
	<connection from="192079312_1313885444_2026362889_2026362882" to="192079312_1313885444_2026362889_2026362883" />
	<connection from="192079312_1313885444_2026362889_2026362883" to="192079312_1313885444_2026362889_2026362886" />
	<connection from="192079312_1313885444_2026362889_2026362886" to="192079312_1313885444_2026362889_2026362888" />
	<connection from="192079312_1313885444_2026362889_2026362888" to="192079316_2026362889_1587635313_2026362889" />
	<connection from="23994425_260147840_260147845_260147840" to="23994424_260147845_260147843_260147845" />
	<connection from="23994425_260147840_260147845_260147840" to="23994425_260147845_260147849_260147845" />
	<connection from="23994425_260147840_260147845_260147840" to="23994425_260147845_260147840_260147845" />
	<connection from="14134177_134858046_134639614_134858046" to="14134177_134639614_134858046_134639614" />
	<connection from="14134177_134858046_134639614_134858046" to="245489794_134639614_134615479_134639614" />
	<connection from="14134177_134858046_134639614_134858046" to="245489794_134639614_134639613_134639614" />
	<connection from="106057563_866613693_866614474_866613693" to="106057563_866613693_866614474_866614207" />
	<connection from="106057563_866613693_866614474_866614207" to="106057563_866613693_866614474_1313885413" />
	<connection from="106057563_866613693_866614474_1313885413" to="106057563_866613693_866614474_1313885451" />
	<connection from="106057563_866613693_866614474_1313885451" to="116570250_866614474_866613833_866614474" />
	<connection from="5563317_41240359_41240332_41240359" to="5563317_41240359_41240332_387725378" />
	<connection from="5563317_41240359_41240332_387725378" to="8162640_41240332_41240325_41240332" />
	<connection from="5563317_41240359_41240332_387725378" to="8162644_41240332_41240339_41240332" />
	<connection from="5563317_41240359_41240332_387725378" to="5563317_41240332_41240359_41240332" />
	<connection from="172584342_2340144555_318595232_2340144555" to="172584342_318595232_2340144555_318595232" />
	<connection from="172584342_2340144555_318595232_2340144555" to="172584342_318595232_536435637_318595232" />
	<connection from="172584342_2340144555_318595232_2340144555" to="169763620_318595232_572276974_318595232" />
	<connection from="5563325_41240529_41240542_41240529" to="5563325_41240529_41240542_2032424224" />
	<connection from="5563325_41240529_41240542_2032424224" to="5563325_41240529_41240542_2032424228" />
	<connection from="5563325_41240529_41240542_2032424228" to="5563325_41240542_41240529_41240542" />
	<connection from="15744228_157560833_157562578_157560833" to="15744300_157562578_157561608_157562578" />
	<connection from="15744228_157560833_157562578_157560833" to="15744228_157562578_75670647_157562578" />
	<connection from="15744228_157560833_157562578_157560833" to="15744228_157562578_157560833_157562578" />
	<connection from="9536626_49832298_73694355_49832298" to="9536626_49832298_73694355_2382718912" />
	<connection from="9536626_49832298_73694355_2382718912" to="9536626_49832298_73694355_73695080" />
	<connection from="9536626_49832298_73694355_73695080" to="9536626_73694355_49832298_73694355" />
	<connection from="9536626_49832298_73694355_73695080" to="7996045_73694355_59843388_73694355" />
	<connection from="9536626_49832298_73694355_73695080" to="7996045_73694355_51545421_73694355" />
	<connection from="14134177_134858046_134845511_134858046" to="14134177_134858046_134845511_252326337" />
	<connection from="14134177_134858046_134845511_252326337" to="52092909_134845511_134859062_134845511" />
	<connection from="14134177_134858046_134845511_252326337" to="14134177_134845511_134858046_134845511" />
	<connection from="14134177_134858046_134845511_252326337" to="52092910_134845511_134850325_134845511" />
	<connection from="35389371_29768635_134692189_29768635" to="35389371_134692189_29768635_134692189" />
	<connection from="35389371_29768635_134692189_29768635" to="14123326_134692189_134691633_134692189" />
	<connection from="35389371_29768635_134692189_29768635" to="35389371_134692189_134692190_134692189" />
	<connection from="35389371_29768635_134692189_29768635" to="14123326_134692189_134692400_134692189" />
	<connection from="15807866_158835146_158836621_158835146" to="15807866_158835146_158836621_158836619" />
	<connection from="15807866_158835146_158836621_158836619" to="15807899_158836621_158839146_158836621" />
	<connection from="15807866_158835146_158836621_158836619" to="15807899_158836621_158834791_158836621" />
	<connection from="15807866_158835146_158836621_158836619" to="15807866_158836621_158835146_158836621" />
	<connection from="15807866_158835146_158836621_158836619" to="15807866_158836621_158836624_158836621" />
	<connection from="25118655_273486661_273486662_273486661" to="24966427_273486662_273486660_273486662" />
	<connection from="25118655_273486661_273486662_273486661" to="25118655_273486662_273486661_273486662" />
	<connection from="25118655_273486661_273486662_273486661" to="24966427_273486662_266006234_273486662" />
	<connection from="166752304_39933917_75666594_39933917" to="166752304_39933917_75666594_564006580" />
	<connection from="166752304_39933917_75666594_564006580" to="9659058_75666594_268746441_75666594" />
	<connection from="166752304_39933917_75666594_564006580" to="9659083_75666594_75670644_75666594" />
	<connection from="166752304_39933917_75666594_564006580" to="166752304_75666594_75673057_75666594" />
	<connection from="166752304_39933917_75666594_564006580" to="166752304_75666594_39933917_75666594" />
	<connection from="50833761_41240286_260162515_41240286" to="50833761_260162515_260162533_260162515" />
	<connection from="50833761_41240286_260162515_41240286" to="50833761_260162515_41240286_260162515" />
	<connection from="50833761_41240286_260162515_41240286" to="23995137_260162515_260162510_260162515" />
	<connection from="241092241_2492014459_33965032_2492014459" to="241092241_2492014459_33965032_33965024" />
	<connection from="241092241_2492014459_33965032_33965024" to="241092241_2492014459_33965032_2492014460" />
	<connection from="241092241_2492014459_33965032_2492014460" to="241092241_2492014459_33965032_33965020" />
	<connection from="241092241_2492014459_33965032_33965020" to="241092241_2492014459_33965032_362755578" />
	<connection from="241092241_2492014459_33965032_362755578" to="241092241_2492014459_33965032_33965026" />
	<connection from="241092241_2492014459_33965032_33965026" to="241092241_2492014459_33965032_33965030" />
	<connection from="241092241_2492014459_33965032_33965030" to="45124038_33965032_33965042_33965032" />
	<connection from="241092241_2492014459_33965032_33965030" to="241092241_33965032_2492014459_33965032" />
	<connection from="34621021_402340569_402340570_402340569" to="34621021_402340570_402340569_402340570" />
	<connection from="34621021_402340569_402340570_402340569" to="34621025_402340570_402340577_402340570" />
	<connection from="24726690_157554788_75670646_157554788" to="9659083_75670646_75670644_75670646" />
	<connection from="24726690_157554788_75670646_157554788" to="9659083_75670646_75670647_75670646" />
	<connection from="24726690_157554788_75670646_157554788" to="24726690_75670646_157554788_75670646" />
	<connection from="8162645_1169625246_29859948_1169625246" to="8162645_29859948_1169625246_29859948" />
	<connection from="8162645_1169625246_29859948_1169625246" to="5051509_29859948_29859406_29859948" />
	<connection from="8162645_1169625246_29859948_1169625246" to="241594961_29859948_279321899_29859948" />
	<connection from="8162645_1169625246_29859948_1169625246" to="5051509_29859948_29859949_29859948" />
	<connection from="62710235_49395257_183974718_49395257" to="62710235_49395257_183974718_1986777785" />
	<connection from="62710235_49395257_183974718_1986777785" to="62710235_49395257_183974718_60635399" />
	<connection from="62710235_49395257_183974718_60635399" to="62710235_49395257_183974718_2450938912" />
	<connection from="62710235_49395257_183974718_2450938912" to="62710235_49395257_183974718_267925338" />
	<connection from="62710235_49395257_183974718_267925338" to="62710235_49395257_183974718_40050015" />
	<connection from="62710235_49395257_183974718_40050015" to="62710235_49395257_183974718_267926274" />
	<connection from="62710235_49395257_183974718_267926274" to="62710235_49395257_183974718_267926276" />
	<connection from="62710235_49395257_183974718_267926276" to="62710235_49395257_183974718_267926476" />