<nodes>
	<node id="866613617" x="401721.2894" y="5830383.5757" z="58.9788" type="priority" />
	<node id="2632245436" x="399909.1546" y="5834705.7934" z="60.0000" type="priority" />
	<node id="41240371" x="405205.4892" y="5835368.8690" z="69.9442" type="priority" />
	<node id="268746480" x="402891.3857" y="5833194.2388" z="68.1866" type="priority" />
	<node id="866613611" x="402550.5397" y="5830784.9896" z="67.1719" type="priority" />
	<node id="134655644" x="400685.2319" y="5834361.2443" z="58.4460" type="priority" />
	<node id="134655645" x="400791.6125" y="5834357.1197" z="60.0000" type="priority" />
	<node id="73597235" x="399193.7768" y="5832976.4584" z="73.4052" type="priority" />
	<node id="73597236" x="399421.8887" y="5833002.2151" z="74.4344" type="priority" />
	<node id="134655643" x="400650.4950" y="5834370.8761" z="57.9228" type="priority" />
	<node id="309144405" x="406386.2525" y="5833284.1315" z="81.0000" type="priority" />
	<node id="73597231" x="398888.2973" y="5832933.2435" z="66.7514" type="priority" />
	<node id="73597232" x="399012.6238" y="5832952.1098" z="73.0199" type="priority" />
	<node id="2507201288" x="405406.7794" y="5829294.3220" z="74.0054" type="priority" />
	<node id="2507201286" x="405800.4051" y="5829093.0407" z="73.1463" type="priority" />
	<node id="2507201284" x="405411.6041" y="5829343.7091" z="75.0727" type="priority" />
	<node id="302687815" x="405211.1109" y="5833938.3805" z="79.6042" type="priority" />
	<node id="2507201282" x="405413.2556" y="5829347.4825" z="75.1548" type="priority" />
	<node id="73640194" x="400806.4298" y="5833225.8545" z="73.3690" type="priority" />
	<node id="158842715" x="402723.0693" y="5835236.1416" z="63.6729" type="priority" />
	<node id="73640193" x="400696.1934" y="5833461.6569" z="72.7862" type="priority" />
	<node id="158842716" x="402772.4065" y="5835254.0841" z="62.6987" type="priority" />
	<node id="158842717" x="402817.3134" y="5835283.9881" z="61.1008" type="priority" />
	<node id="866613606" x="402536.3171" y="5830430.8686" z="65.0730" type="priority" />
	<node id="28830219" x="403178.8049" y="5836408.5328" z="67.5115" type="priority" />
	<node id="41240384" x="405126.4984" y="5835446.2804" z="68.1907" type="priority" />
	<node id="1407260241" x="399382.7724" y="5832896.7457" z="69.9959" type="priority" />
	<node id="536436204" x="402146.0672" y="5828973.2980" z="66.8937" type="priority" />
	<node id="73640197" x="400999.4360" y="5833088.6405" z="75.3830" type="priority" />
	<node id="73640196" x="400821.0303" y="5833201.2224" z="73.6367" type="priority" />
	<node id="41240379" x="405169.9150" y="5835409.5289" z="68.9760" type="priority" />
	<node id="2673252746" x="402805.0556" y="5833768.4318" z="79.1095" type="priority" />
	<node id="2492014456" x="404548.7568" y="5830365.7747" z="70.2669" type="priority" />
	<node id="2673252747" x="402811.6664" y="5833784.3118" z="79.6276" type="priority" />
	<node id="2673252745" x="402786.6783" y="5833730.6548" z="77.8755" type="priority" />
	<node id="669067341" x="399923.3493" y="5829611.3200" z="59.0000" type="priority" />
	<node id="2492014453" x="404744.7986" y="5830112.1148" z="74.2318" type="priority" />
	<node id="2673252748" x="402818.6189" y="5833825.1429" z="79.6823" type="priority" />
	<node id="2673252749" x="402915.4932" y="5833846.4350" z="78.2270" type="priority" />
	<node id="662289985" x="400510.7938" y="5834590.2714" z="60.5917" type="priority" />
	<node id="267925338" x="403249.5168" y="5835213.8894" z="63.2183" type="priority" />
	<node id="401820676" x="401322.3751" y="5834425.2271" z="64.1393" type="priority" />
	<node id="2492014459" x="404514.7006" y="5830414.0747" z="70.0766" type="priority" />
	<node id="41240390" x="404800.0965" y="5835592.2441" z="65.1318" type="priority" />
	<node id="2492014460" x="404316.8357" y="5830690.9465" z="66.1641" type="priority" />
	<node id="2629972803" x="399691.7240" y="5828955.6991" z="56.5142" type="priority" />
	<node id="160676837" x="400461.3164" y="5829090.0562" z="58.8476" type="priority" />
	<node id="2492014461" x="403184.4001" y="5834030.9920" z="71.4317" type="priority" />
	<node id="2629972804" x="399781.2540" y="5828952.6814" z="55.8920" type="priority" />
	<node id="2629972805" x="399788.8212" y="5828936.4808" z="56.0650" type="priority" />
	<node id="2697697230" x="400181.7470" y="5833781.2854" z="61.7977" type="traffic_light" />
	<node id="2250683384" x="399788.5453" y="5832290.8938" z="70.4820" type="traffic_light" />
	<node id="536435372" x="402538.5846" y="5829308.1025" z="61.2517" type="priority" />
	<node id="2250683385" x="400723.1069" y="5832824.3023" z="77.6555" type="priority" />
	<node id="2250683387" x="401748.7247" y="5832259.7430" z="69.4518" type="priority" />
	<node id="134677872" x="400250.0739" y="5832125.1867" z="67.8646" type="priority" />
	<node id="1543887358" x="401664.9726" y="5835049.0552" z="69.2383" type="priority" />
	<node id="1543887359" x="401750.3167" y="5835071.5466" z="70.8888" type="priority" />
	<node id="134677870" x="400246.5207" y="5832121.6096" z="67.7828" type="priority" />
	<node id="41240397" x="404771.4327" y="5835611.3416" z="65.0031" type="priority" />
	<node id="134678318" x="400385.8780" y="5832124.5815" z="64.8973" type="priority" />
	<node id="658872847" x="402191.2033" y="5833829.0989" z="73.1828" type="priority" />
	<node id="1816060386" x="402598.6867" y="5830776.6736" z="68.1781" type="priority" />
	<node id="658872848" x="402690.8887" y="5833296.4981" z="72.4959" type="priority" />
	<node id="2026362935" x="402891.9285" y="5832145.3543" z="63.7824" type="priority" />
	<node id="2450938921" x="403716.2258" y="5835488.7067" z="63.6224" type="priority" />
	<node id="2026362934" x="402857.4552" y="5832043.7504" z="65.7711" type="priority" />
	<node id="2026362932" x="402852.5301" y="5831870.5348" z="64.4907" type="priority" />
	<node id="2026362930" x="402825.3139" y="5831870.6317" z="64.8423" type="priority" />
	<node id="157512387" x="401498.1685" y="5834143.9279" z="73.3637" type="priority" />
	<node id="157572843" x="402016.4357" y="5833967.3234" z="72.0126" type="priority" />
	<node id="157512386" x="401519.3426" y="5834074.8236" z="75.5159" type="priority" />
	<node id="134677869" x="400245.4665" y="5832110.7822" z="67.7824" type="priority" />
	<node id="715470435" x="406784.9079" y="5828649.1438" z="65.6080" type="priority" />
	<node id="157512389" x="401486.1635" y="5834176.1164" z="72.4502" type="priority" />
	<node id="2026362939" x="402925.2690" y="5832423.4770" z="63.3913" type="priority" />
	<node id="2026362938" x="402897.2701" y="5832306.2219" z="63.9537" type="priority" />
	<node id="2026362943" x="402935.9609" y="5832632.8074" z="64.6690" type="priority" />
	<node id="2333298688" x="400551.7323" y="5834251.8039" z="58.5740" type="priority" />
	<node id="158835147" x="402072.0955" y="5835170.2102" z="66.7893" type="priority" />
	<node id="158835146" x="402030.2613" y="5835082.4126" z="68.1185" type="priority" />
	<node id="2026362940" x="402911.7926" y="5832423.9455" z="63.2264" type="priority" />
	<node id="150942629" x="402150.1087" y="5828842.2971" z="67.7844" type="priority" />
	<node id="157559861" x="402443.4367" y="5833714.5999" z="78.8404" type="priority" />
	<node id="157559862" x="402483.6244" y="5833800.8094" z="76.8346" type="priority" />
	<node id="2450938912" x="403231.4963" y="5834996.3471" z="65.9805" type="priority" />
	<node id="2450938914" x="403219.3141" y="5834999.6155" z="65.9330" type="priority" />
	<node id="286569590" x="404738.9717" y="5835643.8324" z="64.6596" type="priority" />
	<node id="286569593" x="404746.0781" y="5835636.3609" z="64.7387" type="priority" />
	<node id="279327701" x="402834.2166" y="5826932.3809" z="56.5512" type="priority" />
	<node id="267925376" x="403238.1698" y="5835216.5960" z="63.0806" type="priority" />
	<node id="1109759293" x="401785.8645" y="5828726.9339" z="61.3369" type="priority" />
	<node id="2241960901" x="402760.4775" y="5827683.9337" z="61.0416" type="priority" />
	<node id="2333298692" x="400553.9502" y="5834274.6028" z="58.3276" type="priority" />
	<node id="2241960902" x="402776.3409" y="5827792.1943" z="62.4553" type="priority" />
	<node id="134853967" x="400163.8032" y="5835396.8791" z="63.6156" type="priority" />
	<node id="134853966" x="400125.8018" y="5835211.4881" z="65.5816" type="priority" />
	<node id="134853965" x="399947.3868" y="5834972.4182" z="60.5361" type="priority" />
	<node id="1109759299" x="401901.8577" y="5828681.5635" z="63.4402" type="priority" />
	<node id="2026362911" x="402641.0948" y="5830619.1709" z="65.0000" type="priority" />
	<node id="288331819" x="405941.7922" y="5828978.4029" z="74.8855" type="priority" />
	<node id="2390003921" x="400755.5458" y="5829137.5997" z="57.0408" type="priority" />
	<node id="49829214" x="402274.6579" y="5828794.5053" z="65.0575" type="priority" />
	<node id="2390003920" x="400678.3333" y="5829131.5031" z="57.7658" type="priority" />
	<node id="288331823" x="406125.3517" y="5829171.0788" z="76.0000" type="priority" />
	<node id="49829212" x="400450.6847" y="5829117.2005" z="57.9401" type="priority" />
	<node id="2673252750" x="402884.8609" y="5833848.7808" z="79.0017" type="priority" />
	<node id="2026362919" x="402625.5147" y="5830865.7659" z="69.1865" type="priority" />
	<node id="2026362918" x="402552.4086" y="5830808.0408" z="67.7510" type="priority" />
	<node id="49829210" x="400375.7595" y="5829143.8980" z="56.6081" type="priority" />
	<node id="2026362917" x="402605.0868" y="5830804.5190" z="69.0084" type="priority" />
	<node id="2026362916" x="402551.1625" y="5830720.1960" z="65.7362" type="priority" />
	<node id="2261885304" x="400563.6695" y="5835317.8233" z="64.5645" type="priority" />
	<node id="2026362915" x="402589.2182" y="5830683.3181" z="65.6445" type="priority" />
	<node id="2026362925" x="402739.2519" y="5831244.9524" z="68.4743" type="priority" />
	<node id="157554190" x="402167.5567" y="5833340.0054" z="80.6508" type="priority" />
	<node id="1212318593" x="400273.6207" y="5835507.9057" z="63.0019" type="priority" />
	<node id="2628502184" x="399967.4297" y="5834289.5293" z="60.4079" type="priority" />
	<node id="76586045" x="401193.4614" y="5831647.5408" z="59.3159" type="priority" />
	<node id="49829203" x="399577.9369" y="5828922.9983" z="58.8405" type="priority" />
	<node id="603698753" x="401674.8594" y="5833865.4885" z="77.7130" type="priority" />
	<node id="2390003912" x="399444.3948" y="5828953.2749" z="59.0397" type="priority" />
	<node id="49829201" x="399426.6762" y="5828866.6587" z="59.8983" type="priority" />
	<node id="49829206" x="399891.4150" y="5828998.6358" z="54.3720" type="priority" />
	<node id="49829207" x="400060.2563" y="5829071.0310" z="54.6867" type="priority" />
	<node id="49829204" x="399718.0260" y="5828962.0466" z="56.0328" type="priority" />
	<node id="2026362929" x="402807.6266" y="5831786.2299" z="65.9919" type="priority" />
	<node id="134847271" x="399256.1890" y="5834496.6443" z="65.9226" type="priority" />
	<node id="2026362926" x="402682.4659" y="5831526.7625" z="69.2259" type="priority" />
	<node id="603698751" x="401675.6562" y="5833948.6252" z="76.0000" type="priority" />
	<node id="1109759233" x="399253.0969" y="5831438.5945" z="60.7026" type="priority" />
	<node id="402340569" x="402888.2831" y="5830641.7187" z="65.0008" type="priority" />
	<node id="402340568" x="402913.1148" y="5830660.6524" z="65.3409" type="priority" />
	<node id="33965027" x="403535.0766" y="5832279.8478" z="69.3568" type="priority" />
	<node id="33965026" x="403748.7917" y="5831232.9687" z="65.8780" type="priority" />
	<node id="267926276" x="403275.3251" y="5835933.8730" z="69.3148" type="priority" />
	<node id="33965024" x="404370.3734" y="5830616.4600" z="66.9561" type="priority" />
	<node id="321605462" x="400277.8474" y="5827988.2114" z="64.1723" type="priority" />
	<node id="267926274" x="403278.1317" y="5835846.2477" z="67.2168" type="priority" />
	<node id="1971759905" x="402942.8121" y="5832580.7749" z="64.4892" type="priority" />
	<node id="33965020" x="404290.5991" y="5830718.5214" z="66.0000" type="priority" />
	<node id="9671202" x="405148.9905" y="5829264.6185" z="72.8134" type="priority" />
	<node id="2268444752" x="401511.5917" y="5834396.3089" z="66.6727" type="priority" />
	<node id="2026362901" x="400245.1525" y="5830585.6460" z="58.3578" type="priority" />
	<node id="2268444750" x="401497.9147" y="5834390.9327" z="66.6759" type="priority" />
	<node id="402340570" x="402725.6756" y="5830513.1470" z="66.7732" type="priority" />
	<node id="2268444756" x="401531.9007" y="5834415.4267" z="66.1835" type="priority" />
	<node id="402340572" x="402951.8489" y="5830563.7341" z="67.4801" type="priority" />
	<node id="2268444754" x="401575.4557" y="5834403.0750" z="66.8742" type="priority" />
	<node id="402340571" x="403518.7977" y="5831696.3067" z="72.0041" type="priority" />
	<node id="402340574" x="403105.9956" y="5830559.8927" z="67.5176" type="priority" />
	<node id="402340573" x="403012.6467" y="5830482.3338" z="69.0013" type="priority" />
	<node id="402340576" x="402895.5678" y="5830388.6696" z="67.7308" type="priority" />
	<node id="134618281" x="399549.1393" y="5834397.5080" z="60.0000" type="priority" />
	<node id="402340575" x="403067.3264" y="5830527.5801" z="68.3837" type="priority" />
	<node id="402340578" x="402928.4610" y="5830365.0716" z="67.9977" type="priority" />
	<node id="21508763" x="402072.7951" y="5830378.3468" z="63.9667" type="priority" />
	<node id="402340577" x="402813.0198" y="5830446.7372" z="68.5867" type="priority" />
	<node id="402340579" x="402985.5429" y="5830327.6406" z="67.2606" type="priority" />
	<node id="279322450" x="406066.5869" y="5829917.8980" z="72.0667" type="priority" />
	<node id="259974134" x="405422.3928" y="5829447.8022" z="76.9915" type="priority" />
	<node id="279322451" x="406277.8453" y="5830081.4279" z="73.7850" type="priority" />
	<node id="33965039" x="404714.3007" y="5830135.7536" z="73.8057" type="priority" />
	<node id="259974135" x="405420.2320" y="5829456.5452" z="77.1633" type="priority" />
	<node id="318087303" x="406034.5750" y="5831957.2866" z="90.1743" type="priority" />
	<node id="259974133" x="405367.4272" y="5829407.1308" z="75.9630" type="priority" />
	<node id="33965036" x="403507.7862" y="5831792.0602" z="73.0635" type="priority" />
	<node id="33965035" x="403622.8675" y="5831324.1022" z="67.0162" type="priority" />
	<node id="33965032" x="403661.3421" y="5831287.7252" z="66.1781" type="priority" />
	<node id="51558635" x="399389.5783" y="5831899.6722" z="67.4224" type="priority" />
	<node id="262166918" x="403846.7639" y="5831794.5141" z="65.8688" type="priority" />
	<node id="33965030" x="403715.6368" y="5831258.6249" z="65.5818" type="priority" />
	<node id="51558637" x="399694.5181" y="5831552.5115" z="66.6065" type="priority" />
	<node id="2026362908" x="402177.4868" y="5830609.0354" z="65.4951" type="priority" />
	<node id="2333298695" x="400671.2154" y="5834277.1525" z="57.9784" type="priority" />
	<node id="572283926" x="402230.5198" y="5828547.8363" z="66.2008" type="priority" />
	<node id="2301891639" x="399154.7922" y="5833254.3999" z="68.9958" type="priority" />
	<node id="402340581" x="403128.9864" y="5830548.5431" z="67.8808" type="priority" />
	<node id="402340580" x="403001.1848" y="5830611.3559" z="65.9076" type="priority" />
	<node id="75674083" x="402701.2929" y="5833036.9979" z="68.7419" type="priority" />
	<node id="402340583" x="403081.7002" y="5830470.7477" z="69.6034" type="priority" />
	<node id="402340582" x="403100.8343" y="5830501.5231" z="68.9297" type="priority" />
	<node id="262166920" x="403765.9409" y="5831746.4149" z="66.1020" type="priority" />
	<node id="866614081" x="402944.3705" y="5830099.3890" z="66.1639" type="priority" />
	<node id="262166922" x="403719.3901" y="5831722.9988" z="66.6920" type="priority" />
	<node id="2300059083" x="400619.3748" y="5834383.3052" z="57.9106" type="priority" />
	<node id="33965047" x="405325.2886" y="5829465.5732" z="76.6652" type="priority" />
	<node id="866614087" x="402496.6073" y="5830785.3992" z="66.1293" type="priority" />
	<node id="279322445" x="405554.7150" y="5829485.0078" z="75.2430" type="priority" />
	<node id="279322446" x="405563.9498" y="5829539.0498" z="75.6823" type="priority" />
	<node id="262166928" x="403685.1271" y="5832872.8853" z="66.0000" type="priority" />
	<node id="279322447" x="405798.1681" y="5829715.4678" z="75.3904" type="priority" />
	<node id="134851796" x="400434.9624" y="5835195.4815" z="63.1546" type="priority" />
	<node id="33965043" x="404972.1468" y="5829929.7776" z="74.2351" type="priority" />
	<node id="262166929" x="403901.4572" y="5832789.3610" z="67.5389" type="priority" />
	<node id="279322448" x="405993.5000" y="5829865.9634" z="73.7927" type="priority" />
	<node id="33965042" x="403545.2686" y="5831506.3921" z="69.1607" type="priority" />
	<node id="279322449" x="406010.0377" y="5829879.5534" z="73.2524" type="priority" />
	<node id="134851795" x="400349.0674" y="5835121.4830" z="65.8345" type="priority" />
	<node id="33965040" x="403515.9421" y="5831676.5350" z="71.5218" type="priority" />
	<node id="262166924" x="403661.6574" y="5831714.1910" z="68.1726" type="priority" />
	<node id="1109759265" x="402359.2135" y="5828424.2896" z="66.9455" type="priority" />
	<node id="2300059082" x="400738.2452" y="5834356.8041" z="59.6527" type="priority" />
	<node id="262166925" x="403573.7753" y="5831693.4730" z="70.5213" type="priority" />
	<node id="262166926" x="403541.9843" y="5832912.2217" z="70.9756" type="priority" />
	<node id="134851798" x="400560.8982" y="5835310.3356" z="64.4660" type="priority" />
	<node id="1109759262" x="399608.8256" y="5828825.8463" z="58.5561" type="priority" />
	<node id="1600991153" x="401322.3702" y="5831020.7256" z="59.8261" type="priority" />
	<node id="1600991154" x="401353.8094" y="5831112.3668" z="60.0000" type="priority" />
	<node id="710288989" x="402428.9996" y="5835510.6611" z="63.8542" type="priority" />
	<node id="1600991155" x="401384.8368" y="5831267.1179" z="62.0288" type="priority" />
	<node id="59843388" x="400169.7341" y="5830040.9681" z="62.8659" type="priority" />
	<node id="2622033107" x="401275.3328" y="5833877.6680" z="76.2908" type="priority" />
	<node id="1600991156" x="401303.8326" y="5830976.3920" z="59.2672" type="priority" />
	<node id="1600991157" x="401372.6776" y="5831183.1541" z="60.5835" type="priority" />
	<node id="1600991158" x="401434.9044" y="5831550.6253" z="62.8893" type="priority" />
	<node id="1587635293" x="399899.1827" y="5830653.9176" z="60.6252" type="priority" />
	<node id="1600991159" x="401393.6484" y="5831394.2001" z="63.7927" type="priority" />
	<node id="1587635290" x="398111.8317" y="5831324.3246" z="58.6962" type="priority" />
	<node id="627734062" x="401132.1909" y="5835131.5931" z="64.9176" type="priority" />
	<node id="262166931" x="403908.6033" y="5832752.4791" z="68.0176" type="priority" />
	<node id="866614071" x="402544.4846" y="5830430.1714" z="65.2353" type="priority" />
	<node id="262166933" x="404204.3371" y="5832770.0615" z="69.1658" type="priority" />
	<node id="627734063" x="401121.5911" y="5835141.7447" z="64.5343" type="priority" />
	<node id="157560833" x="402630.7028" y="5833718.2338" z="79.4066" type="priority" />
	<node id="262166934" x="404464.7702" y="5832790.2780" z="70.4921" type="priority" />
	<node id="157560834" x="402663.6848" y="5833792.5269" z="78.9937" type="priority" />
	<node id="157560831" x="402546.1463" y="5833572.8573" z="79.9593" type="priority" />
	<node id="279321104" x="406694.2690" y="5828570.1731" z="66.7508" type="priority" />
	<node id="262166930" x="403907.2606" y="5832757.8576" z="67.9603" type="priority" />
	<node id="279321105" x="406734.9848" y="5828601.2955" z="65.4319" type="priority" />
	<node id="33965054" x="405414.9942" y="5829351.2097" z="75.2359" type="priority" />
	<node id="279321106" x="406768.3191" y="5828641.8387" z="65.4636" type="priority" />
	<node id="33965052" x="405399.9520" y="5829364.6417" z="75.5193" type="priority" />
	<node id="33965050" x="405382.6880" y="5829387.1630" z="75.8161" type="priority" />
	<node id="1600991160" x="401409.9996" y="5831468.5100" z="63.4024" type="priority" />
	<node id="163068502" x="402086.9723" y="5828767.5765" z="67.0597" type="priority" />
	<node id="2509637418" x="400469.2087" y="5832626.5622" z="74.8202" type="priority" />
	<node id="163068500" x="401489.2229" y="5829000.0125" z="57.9920" type="priority" />
	<node id="1587635287" x="398849.9809" y="5831006.7850" z="55.5522" type="priority" />
	<node id="866614067" x="402278.0618" y="5830196.8467" z="62.2863" type="priority" />
	<node id="2407315926" x="406406.9354" y="5829552.0917" z="70.8980" type="priority" />
	<node id="2548923616" x="405898.4825" y="5828476.6444" z="69.4007" type="priority" />
	<node id="866614062" x="400892.9778" y="5830217.8730" z="62.9834" type="priority" />
	<node id="2548923618" x="405521.9611" y="5828626.3354" z="63.8844" type="priority" />
	<node id="157551078" x="402180.3972" y="5833564.3917" z="80.4344" type="priority" />
	<node id="75683848" x="401357.2117" y="5834275.0069" z="69.2945" type="priority" />
	<node id="157551079" x="402194.8031" y="5833567.2294" z="79.9899" type="priority" />
	<node id="75683847" x="401419.0686" y="5834104.7793" z="73.8262" type="priority" />
	<node id="75683849" x="401385.3541" y="5834315.3186" z="68.3607" type="priority" />
	<node id="33965065" x="405754.2677" y="5829103.3553" z="73.0312" type="priority" />
	<node id="2526390876" x="402580.3678" y="5830625.0115" z="64.6739" type="priority" />
	<node id="33965062" x="406407.6272" y="5829547.8948" z="70.8701" type="priority" />
	<node id="265356222" x="399504.2546" y="5834302.4828" z="60.1092" type="priority" />
	<node id="2580645101" x="400632.7882" y="5833991.8672" z="60.4516" type="priority" />
	<node id="134853560" x="400443.8519" y="5835291.7950" z="64.6179" type="priority" />
	<node id="2526390882" x="402430.6130" y="5830748.1854" z="65.0525" type="priority" />
	<node id="39975026" x="403192.4695" y="5834374.2885" z="65.9600" type="priority" />
	<node id="1587635277" x="398492.7836" y="5831159.8799" z="57.1584" type="priority" />
	<node id="1109759200" x="400313.7333" y="5829132.7349" z="55.7815" type="priority" />
	<node id="1587635275" x="399742.2097" y="5830688.3068" z="60.2440" type="priority" />
	<node id="2621031473" x="401631.9562" y="5834031.8250" z="75.9118" type="priority" />
	<node id="134853561" x="400455.0366" y="5835339.1798" z="64.8194" type="priority" />
	<node id="1109759204" x="399542.7622" y="5828909.2231" z="59.1896" type="priority" />
	<node id="1587635272" x="398335.0314" y="5831226.9010" z="56.4688" type="priority" />
	<node id="1587635270" x="399344.2692" y="5830805.9447" z="56.3347" type="priority" />
	<node id="866614059" x="402602.5781" y="5830898.7033" z="69.2543" type="priority" />
	<node id="866614052" x="402510.0095" y="5830508.7375" z="63.0474" type="priority" />
	<node id="382428332" x="401232.2168" y="5835412.6953" z="67.9052" type="priority" />
	<node id="134853567" x="400499.5209" y="5835604.1448" z="62.0673" type="priority" />
	<node id="536432717" x="401667.6792" y="5828774.3765" z="60.2883" type="priority" />
	<node id="75683851" x="401416.9035" y="5834377.2149" z="66.8747" type="priority" />
	<node id="75683850" x="401410.1945" y="5834356.3425" z="67.4429" type="priority" />
	<node id="75683852" x="401419.8695" y="5834399.3980" z="65.8206" type="priority" />
	<node id="134618278" x="399584.4108" y="5834367.9284" z="60.0205" type="priority" />
	<node id="39975038" x="403087.7686" y="5834152.3936" z="68.7724" type="priority" />
	<node id="134618273" x="399908.3151" y="5834092.7337" z="58.8682" type="priority" />
	<node id="134618271" x="399961.6128" y="5834040.0205" z="58.0000" type="priority" />
	<node id="73597249" x="401111.5273" y="5832456.3382" z="80.2905" type="priority" />
	<node id="134618276" x="399615.2370" y="5834342.6466" z="60.5086" type="priority" />
	<node id="73597252" x="401479.1770" y="5832125.7683" z="63.8257" type="priority" />
	<node id="73597254" x="401504.6068" y="5832110.6784" z="63.6892" type="priority" />
	<node id="2526390859" x="400952.4708" y="5830399.3498" z="66.9339" type="priority" />
	<node id="73597255" x="401547.3174" y="5832096.3859" z="64.3065" type="priority" />
	<node id="73597250" x="401272.9129" y="5832305.2679" z="70.7408" type="priority" />
	<node id="73597251" x="401452.6898" y="5832145.1415" z="64.5400" type="priority" />
	<node id="2526390860" x="401796.8767" y="5830396.8310" z="59.6886" type="priority" />
	<node id="134618268" x="400025.9461" y="5833974.5636" z="56.5570" type="priority" />
	<node id="134618267" x="400108.1195" y="5833877.6193" z="57.9465" type="priority" />
	<node id="157551080" x="402309.3418" y="5833596.8346" z="80.6439" type="priority" />
	<node id="73597238" x="399562.8249" y="5833014.2878" z="77.1817" type="priority" />
	<node id="73597245" x="400636.6272" y="5832904.7546" z="72.3690" type="priority" />
	<node id="73597246" x="400813.3977" y="5832740.0355" z="76.5097" type="priority" />
	<node id="73597247" x="400909.6673" y="5832645.3452" z="73.1064" type="priority" />
	<node id="73597248" x="401072.7742" y="5832493.6431" z="80.9397" type="priority" />
	<node id="73597242" x="399969.0269" y="5833107.7866" z="73.5265" type="priority" />
	<node id="73597243" x="400614.8211" y="5832917.9506" z="71.9449" type="priority" />
	<node id="2548923620" x="405767.1729" y="5828915.5432" z="68.5823" type="priority" />
	<node id="157564462" x="402669.7297" y="5834018.3626" z="73.3377" type="priority" />
	<node id="40447247" x="405685.0100" y="5828963.9061" z="68.8344" type="priority" />
	<node id="157564463" x="402814.5994" y="5833990.5258" z="75.8983" type="priority" />
	<node id="157564464" x="402924.4031" y="5833963.8700" z="75.5466" type="priority" />
	<node id="60635399" x="403207.9452" y="5834779.7715" z="68.9372" type="priority" />
	<node id="157564466" x="402988.6209" y="5833939.6367" z="75.9028" type="priority" />
	<node id="245364167" x="400810.4351" y="5835336.1392" z="63.0000" type="priority" />
	<node id="2694682714" x="400509.6215" y="5834223.4654" z="58.6915" type="priority" />
	<node id="658867907" x="404813.5087" y="5827730.5347" z="70.4217" type="priority" />
	<node id="1587685503" x="399265.0734" y="5831369.2695" z="59.3710" type="priority" />
	<node id="73589281" x="401377.5479" y="5831530.9878" z="63.2376" type="priority" />
	<node id="2587612659" x="401521.9812" y="5833818.1237" z="77.3770" type="priority" />
	<node id="1587685505" x="399299.3312" y="5831233.7561" z="57.6197" type="priority" />
	<node id="76583331" x="403403.7230" y="5831659.1944" z="69.9970" type="priority" />
	<node id="73589280" x="401383.1996" y="5831494.3546" z="63.1295" type="priority" />
	<node id="2587612658" x="401404.6701" y="5833818.1245" z="78.1772" type="priority" />
	<node id="157533724" x="400467.3718" y="5835408.1169" z="63.6238" type="priority" />
	<node id="134843301" x="399967.2050" y="5834754.0956" z="60.9353" type="priority" />
	<node id="157564461" x="402543.7987" y="5834043.5552" z="69.1854" type="priority" />
	<node id="59843327" x="399151.7104" y="5829335.1869" z="54.3229" type="priority" />
	<node id="59843326" x="399507.2328" y="5829008.2625" z="59.0802" type="priority" />
	<node id="560129005" x="401146.1321" y="5835122.7202" z="65.3821" type="priority" />
	<node id="157564457" x="402176.0850" y="5834042.6856" z="70.5983" type="priority" />
	<node id="59843325" x="399555.6159" y="5828957.3841" z="58.8365" type="priority" />
	<node id="157564458" x="402290.9881" y="5834055.5587" z="68.2295" type="priority" />
	<node id="1744536382" x="403047.6994" y="5828381.7892" z="64.4053" type="priority" />
	<node id="157564459" x="402417.3756" y="5834070.1407" z="69.3041" type="priority" />
	<node id="866614497" x="402817.8947" y="5830227.5952" z="66.0064" type="priority" />
	<node id="40447255" x="405673.1819" y="5828959.7061" z="68.8382" type="priority" />
	<node id="866614018" x="402494.4838" y="5830412.3098" z="64.9659" type="priority" />
	<node id="392366303" x="401297.4598" y="5835551.9649" z="66.6279" type="priority" />
	<node id="134677092" x="400255.7253" y="5832311.8406" z="68.0586" type="priority" />
	<node id="2313488262" x="399398.2993" y="5832496.5348" z="68.3995" type="priority" />
	<node id="2651597300" x="402302.4665" y="5833577.3108" z="81.1650" type="priority" />
	<node id="1510005201" x="399900.7595" y="5829767.0067" z="59.5232" type="priority" />
	<node id="2651597301" x="402302.3335" y="5833585.8702" z="80.8828" type="priority" />
	<node id="2651597302" x="402304.6888" y="5833592.6216" z="80.7022" type="priority" />
	<node id="134850063" x="399511.5259" y="5834925.9826" z="59.2752" type="priority" />
	<node id="536432317" x="401496.5810" y="5828841.1818" z="59.1724" type="priority" />
	<node id="134845508" x="400686.0675" y="5835004.3781" z="61.8256" type="priority" />
	<node id="134845506" x="400723.3146" y="5835008.2482" z="62.2520" type="priority" />
	<node id="279320650" x="406613.1321" y="5828623.3404" z="66.2996" type="priority" />
	<node id="866614004" x="400895.6241" y="5830200.7614" z="62.8451" type="traffic_light" />
	<node id="866614488" x="402715.7132" y="5830289.8941" z="67.6191" type="priority" />
	<node id="134845505" x="400761.6898" y="5835010.3597" z="62.9318" type="priority" />
	<node id="866614008" x="400880.6188" y="5830287.6793" z="63.4894" type="priority" />
	<node id="40447264" x="405652.2669" y="5828945.2226" z="68.5779" type="priority" />
	<node id="134845503" x="400837.2468" y="5835008.8218" z="62.7277" type="priority" />
	<node id="212909574" x="401013.6451" y="5827708.0444" z="58.9310" type="priority" />
	<node id="134845501" x="401103.3034" y="5834997.4405" z="63.5861" type="priority" />