<edges>
	<edge id="23995140_260162539_260162554_260162539" from="260162539" to="260162554" numLanes="1" speed="8.33" />
	<edge id="23995140_260162539_260162558_260162539" from="260162539" to="260162558" numLanes="1" speed="8.33" />
	<edge id="116570245_1313885509_866614488_1313885509" from="1313885509" to="866613837" numLanes="2" speed="22.22" />
	<edge id="116570245_1313885509_866614488_866613837" from="866613837" to="2026362890" numLanes="2" speed="22.22" />
	<edge id="116570245_1313885509_866614488_2026362890" from="2026362890" to="866613502" numLanes="2" speed="22.22" />
	<edge id="116570245_1313885509_866614488_866613502" from="866613502" to="2026362862" numLanes="2" speed="22.22" />
	<edge id="116570245_1313885509_866614488_2026362862" from="2026362862" to="1313885462" numLanes="2" speed="22.22" />
	<edge id="116570245_1313885509_866614488_1313885462" from="1313885462" to="866614488" numLanes="2" speed="22.22" />
	<edge id="64503415_793130975_41239986_793130975" from="793130975" to="311589061" numLanes="1" speed="13.89" />
	<edge id="64503415_793130975_41239986_311589061" from="311589061" to="41239986" numLanes="1" speed="13.89" />
	<edge id="52092909_134845511_134859062_134845511" from="134845511" to="134859062" numLanes="1" speed="13.89" />
	<edge id="23995137_260147853_260162523_260147853" from="260147853" to="260162517" numLanes="1" speed="8.33" />
	<edge id="23995137_260147853_260162523_260162517" from="260162517" to="362769119" numLanes="1" speed="8.33" />
	<edge id="23995137_260147853_260162523_362769119" from="362769119" to="260162519" numLanes="1" speed="8.33" />
	<edge id="23995137_260147853_260162523_260162519" from="260162519" to="260162521" numLanes="1" speed="8.33" />
	<edge id="23995137_260147853_260162523_260162521" from="260162521" to="260162523" numLanes="1" speed="8.33" />
	<edge id="26176469_51557267_51559755_51557267" from="51557267" to="51559755" numLanes="1" speed="13.89" />
	<edge id="9658128_73631554_73659752_73631554" from="73631554" to="73659752" numLanes="1" speed="8.33" />
	<edge id="5653438_41240746_41240737_41240746" from="41240746" to="41240737" numLanes="1" speed="8.33" />
	<edge id="15807806_158834451_158834452_158834451" from="158834451" to="158834452" numLanes="1" speed="8.33" />
	<edge id="50833760_41239986_41239973_41239986" from="41239986" to="2376910140" numLanes="1" speed="19.44" />
	<edge id="50833760_41239986_41239973_2376910140" from="2376910140" to="41239982" numLanes="1" speed="19.44" />
	<edge id="50833760_41239986_41239973_41239982" from="41239982" to="41239973" numLanes="1" speed="19.44" />
	<edge id="27566897_2679401899_302687815_2679401899" from="2679401899" to="302687815" numLanes="1" speed="8.33" />
	<edge id="8162645_1169625246_41240529_1169625246" from="1169625246" to="41240523" numLanes="1" speed="8.33" />
	<edge id="8162645_1169625246_41240529_41240523" from="41240523" to="41240529" numLanes="1" speed="8.33" />
	<edge id="8162640_41240332_41240325_41240332" from="41240332" to="41240325" numLanes="1" speed="8.33" />
	<edge id="15807959_158839366_158837965_158839366" from="158839366" to="158837965" numLanes="1" speed="8.33" />
	<edge id="5563321_41240350_41240297_41240350" from="41240350" to="41240297" numLanes="1" speed="8.33" />
	<edge id="239819461_1313885426_26971236_1313885426" from="1313885426" to="258778935" numLanes="3" speed="36.11" />
	<edge id="239819461_1313885426_26971236_258778935" from="258778935" to="2026362838" numLanes="3" speed="36.11" />
	<edge id="239819461_1313885426_26971236_2026362838" from="2026362838" to="26971235" numLanes="3" speed="36.11" />
	<edge id="239819461_1313885426_26971236_26971235" from="26971235" to="26971236" numLanes="3" speed="36.11" />
	<edge id="34621021_402340569_402340568_402340569" from="402340569" to="402340568" numLanes="1" speed="8.33" />
	<edge id="23995139_260162555_260162556_260162555" from="260162555" to="260162556" numLanes="1" speed="8.33" />
	<edge id="9532209_73603958_73601720_73603958" from="73603958" to="73603957" numLanes="1" speed="8.33" />
	<edge id="9532209_73603958_73601720_73603957" from="73603957" to="853827020" numLanes="1" speed="8.33" />
	<edge id="9532209_73603958_73601720_853827020" from="853827020" to="73603956" numLanes="1" speed="8.33" />
	<edge id="9532209_73603958_73601720_73603956" from="73603956" to="73603955" numLanes="1" speed="8.33" />
	<edge id="9532209_73603958_73601720_73603955" from="73603955" to="73601720" numLanes="1" speed="8.33" />
	<edge id="9533717_73643615_73603962_73643615" from="73643615" to="73603962" numLanes="1" speed="8.33" />
	<edge id="64386552_41240214_41240204_41240214" from="41240214" to="792270064" numLanes="1" speed="8.33" />
	<edge id="64386552_41240214_41240204_792270064" from="792270064" to="33965062" numLanes="1" speed="8.33" />
	<edge id="64386552_41240214_41240204_33965062" from="33965062" to="2407315926" numLanes="1" speed="8.33" />
	<edge id="64386552_41240214_41240204_2407315926" from="2407315926" to="41240209" numLanes="1" speed="8.33" />
	<edge id="64386552_41240214_41240204_41240209" from="41240209" to="41240204" numLanes="1" speed="8.33" />
	<edge id="9658611_75661835_75661834_75661835" from="75661835" to="75661834" numLanes="1" speed="8.33" />
	<edge id="9531655_73631556_73601720_73631556" from="73631556" to="73601720" numLanes="1" speed="8.33" />
	<edge id="15744374_157563031_157564457_157563031" from="157563031" to="2614624070" numLanes="1" speed="8.33" />
	<edge id="15744374_157563031_157564457_2614624070" from="2614624070" to="157564457" numLanes="1" speed="8.33" />
	<edge id="26176469_51558500_73506957_51558500" from="51558500" to="2250683384" numLanes="1" speed="13.89" />
	<edge id="26176469_51558500_73506957_2250683384" from="2250683384" to="73506957" numLanes="1" speed="13.89" />
	<edge id="15742231_134691197_134684859_134691197" from="134691197" to="134684859" numLanes="1" speed="8.33" />
	<edge id="9535658_73683087_73683089_73683087" from="73683087" to="73683089" numLanes="1" speed="8.33" />
	<edge id="9535658_73683082_73683079_73683082" from="73683082" to="73683079" numLanes="1" speed="8.33" />
	<edge id="34621027_402340582_402340583_402340582" from="402340582" to="402340583" numLanes="1" speed="8.33" />
	<edge id="15808339_158849656_158849659_158849656" from="158849656" to="388308075" numLanes="1" speed="8.33" />
	<edge id="15808339_158849656_158849659_388308075" from="388308075" to="158849657" numLanes="1" speed="8.33" />
	<edge id="15808339_158849656_158849659_158849657" from="158849657" to="158849658" numLanes="1" speed="8.33" />
	<edge id="15808339_158849656_158849659_158849658" from="158849658" to="158849659" numLanes="1" speed="8.33" />
	<edge id="23995154_260162571_260162582_260162571" from="260162571" to="260162582" numLanes="1" speed="8.33" />
	<edge id="23995144_260162551_260162552_260162551" from="260162551" to="260162552" numLanes="1" speed="8.33" />
	<edge id="14123399_134693513_134694322_134693513" from="134693513" to="134694322" numLanes="1" speed="8.33" />
	<edge id="9658611_75661835_75661837_75661835" from="75661835" to="2509637418" numLanes="1" speed="8.33" />
	<edge id="9658611_75661835_75661837_2509637418" from="2509637418" to="75661837" numLanes="1" speed="8.33" />
	<edge id="41409049_157512393_502949823_157512393" from="157512393" to="502949823" numLanes="1" speed="8.33" />
	<edge id="15807951_158840869_158842345_158840869" from="158840869" to="158842345" numLanes="1" speed="8.33" />
	<edge id="47431897_603698751_157571608_603698751" from="603698751" to="503700382" numLanes="1" speed="8.33" />
	<edge id="47431897_603698751_157571608_503700382" from="503700382" to="157571607" numLanes="1" speed="8.33" />
	<edge id="47431897_603698751_157571608_157571607" from="157571607" to="157571608" numLanes="1" speed="8.33" />
	<edge id="23995154_260162571_260162579_260162571" from="260162571" to="260162579" numLanes="1" speed="8.33" />
	<edge id="48528411_731909065_29768635_731909065" from="731909065" to="29768634" numLanes="1" speed="13.89" />
	<edge id="48528411_731909065_29768635_29768634" from="29768634" to="731909066" numLanes="1" speed="13.89" />
	<edge id="48528411_731909065_29768635_731909066" from="731909066" to="29768635" numLanes="1" speed="13.89" />
	<edge id="48528411_731909065_29768633_731909065" from="731909065" to="29768633" numLanes="1" speed="13.89" />
	<edge id="248048351_866614062_866614198_866614062" from="866614062" to="866614198" numLanes="1" speed="13.89" />
	<edge id="34621027_402340582_402340581_402340582" from="402340582" to="402340581" numLanes="1" speed="8.33" />
	<edge id="9534678_73663097_73661067_73663097" from="73663097" to="73661067" numLanes="1" speed="8.33" />
	<edge id="14123399_75683847_134698726_75683847" from="75683847" to="134698726" numLanes="1" speed="8.33" />
	<edge id="23995139_260147854_260162555_260147854" from="260147854" to="260162555" numLanes="1" speed="8.33" />
	<edge id="122407198_41240085_41240090_41240085" from="41240085" to="262166769" numLanes="1" speed="13.89" />
	<edge id="122407198_41240085_41240090_262166769" from="262166769" to="41240090" numLanes="1" speed="13.89" />
	<edge id="15807806_158834460_158837959_158834460" from="158834460" to="158837959" numLanes="1" speed="8.33" />
	<edge id="14133806_2102485065_2102485066_2102485065" from="2102485065" to="2102485066" numLanes="1" speed="13.89" />
	<edge id="105202938_1212318678_297428879_1212318678" from="1212318678" to="1212318665" numLanes="1" speed="8.33" />
	<edge id="105202938_1212318678_297428879_1212318665" from="1212318665" to="297428879" numLanes="1" speed="8.33" />
	<edge id="15744417_157566050_157566051_157566050" from="157566050" to="157566051" numLanes="1" speed="8.33" />
	<edge id="24212619_262166729_262166750_262166729" from="262166729" to="262166750" numLanes="1" speed="8.33" />
	<edge id="24726482_338360936_268749283_338360936" from="338360936" to="268749283" numLanes="1" speed="8.33" />
	<edge id="121677915_26971273_1313885544_26971273" from="26971273" to="1871145815" numLanes="2" speed="33.33" />
	<edge id="121677915_26971273_1313885544_1871145815" from="1871145815" to="2314374757" numLanes="2" speed="33.33" />
	<edge id="121677915_26971273_1313885544_2314374757" from="2314374757" to="2526390860" numLanes="2" speed="33.33" />
	<edge id="121677915_26971273_1313885544_2526390860" from="2526390860" to="1313885544" numLanes="2" speed="33.33" />
	<edge id="192079312_1313885444_2026362889_1313885444" from="1313885444" to="866614680" numLanes="2" speed="33.33" />
	<edge id="192079312_1313885444_2026362889_866614680" from="866614680" to="866614059" numLanes="2" speed="33.33" />
	<edge id="192079312_1313885444_2026362889_866614059" from="866614059" to="866614247" numLanes="2" speed="33.33" />
	<edge id="192079312_1313885444_2026362889_866614247" from="866614247" to="866614432" numLanes="2" speed="33.33" />
	<edge id="192079312_1313885444_2026362889_866614432" from="866614432" to="1313885400" numLanes="2" speed="33.33" />
	<edge id="192079312_1313885444_2026362889_1313885400" from="1313885400" to="866613856" numLanes="2" speed="33.33" />
	<edge id="192079312_1313885444_2026362889_866613856" from="866613856" to="866614523" numLanes="2" speed="33.33" />
	<edge id="192079312_1313885444_2026362889_866614523" from="866614523" to="1313885549" numLanes="2" speed="33.33" />
	<edge id="192079312_1313885444_2026362889_1313885549" from="1313885549" to="866613565" numLanes="2" speed="33.33" />
	<edge id="192079312_1313885444_2026362889_866613565" from="866613565" to="1313885422" numLanes="2" speed="33.33" />
	<edge id="192079312_1313885444_2026362889_1313885422" from="1313885422" to="1313885416" numLanes="2" speed="33.33" />
	<edge id="192079312_1313885444_2026362889_1313885416" from="1313885416" to="2026362894" numLanes="2" speed="33.33" />
	<edge id="192079312_1313885444_2026362889_2026362894" from="2026362894" to="2026362892" numLanes="2" speed="33.33" />
	<edge id="192079312_1313885444_2026362889_2026362892" from="2026362892" to="866613918" numLanes="2" speed="33.33" />
	<edge id="192079312_1313885444_2026362889_866613918" from="866613918" to="866614131" numLanes="2" speed="33.33" />
	<edge id="192079312_1313885444_2026362889_866614131" from="866614131" to="2026362887" numLanes="2" speed="33.33" />
	<edge id="192079312_1313885444_2026362889_2026362887" from="2026362887" to="866613552" numLanes="2" speed="33.33" />
	<edge id="192079312_1313885444_2026362889_866613552" from="866613552" to="2026362882" numLanes="2" speed="33.33" />
	<edge id="192079312_1313885444_2026362889_2026362882" from="2026362882" to="2026362883" numLanes="2" speed="33.33" />
	<edge id="192079312_1313885444_2026362889_2026362883" from="2026362883" to="2026362886" numLanes="2" speed="33.33" />
	<edge id="192079312_1313885444_2026362889_2026362886" from="2026362886" to="2026362888" numLanes="2" speed="33.33" />
	<edge id="192079312_1313885444_2026362889_2026362888" from="2026362888" to="2026362889" numLanes="2" speed="33.33" />
	<edge id="23994425_260147840_260147845_260147840" from="260147840" to="260147845" numLanes="1" speed="8.33" />
	<edge id="14134177_134858046_134639614_134858046" from="134858046" to="134639614" numLanes="1" speed="8.33" />
	<edge id="106057563_866613693_866614474_866613693" from="866613693" to="866614207" numLanes="2" speed="22.22" />
	<edge id="106057563_866613693_866614474_866614207" from="866614207" to="1313885413" numLanes="2" speed="22.22" />
	<edge id="106057563_866613693_866614474_1313885413" from="1313885413" to="1313885451" numLanes="2" speed="22.22" />
	<edge id="106057563_866613693_866614474_1313885451" from="1313885451" to="866614474" numLanes="2" speed="22.22" />
	<edge id="5563317_41240359_41240332_41240359" from="41240359" to="387725378" numLanes="1" speed="8.33" />
	<edge id="5563317_41240359_41240332_387725378" from="387725378" to="41240332" numLanes="1" speed="8.33" />
	<edge id="172584342_2340144555_318595232_2340144555" from="2340144555" to="318595232" numLanes="1" speed="8.33" />
	<edge id="5563325_41240529_41240542_41240529" from="41240529" to="2032424224" numLanes="1" speed="8.33" />
	<edge id="5563325_41240529_41240542_2032424224" from="2032424224" to="2032424228" numLanes="1" speed="8.33" />
	<edge id="5563325_41240529_41240542_2032424228" from="2032424228" to="41240542" numLanes="1" speed="8.33" />
	<edge id="15744228_157560833_157562578_157560833" from="157560833" to="157562578" numLanes="1" speed="8.33" />
	<edge id="9536626_49832298_73694355_49832298" from="49832298" to="2382718912" numLanes="1" speed="8.33" />
	<edge id="9536626_49832298_73694355_2382718912" from="2382718912" to="73695080" numLanes="1" speed="8.33" />
	<edge id="9536626_49832298_73694355_73695080" from="73695080" to="73694355" numLanes="1" speed="8.33" />
	<edge id="14134177_134858046_134845511_134858046" from="134858046" to="252326337" numLanes="1" speed="8.33" />
	<edge id="14134177_134858046_134845511_252326337" from="252326337" to="134845511" numLanes="1" speed="8.33" />
	<edge id="35389371_29768635_134692189_29768635" from="29768635" to="134692189" numLanes="1" speed="8.33" />
	<edge id="15807866_158835146_158836621_158835146" from="158835146" to="158836619" numLanes="1" speed="8.33" />
	<edge id="15807866_158835146_158836621_158836619" from="158836619" to="158836621" numLanes="1" speed="8.33" />
	<edge id="25118655_273486661_273486662_273486661" from="273486661" to="273486662" numLanes="1" speed="8.33" />
	<edge id="166752304_39933917_75666594_39933917" from="39933917" to="564006580" numLanes="1" speed="19.44" />
	<edge id="166752304_39933917_75666594_564006580" from="564006580" to="75666594" numLanes="1" speed="19.44" />
	<edge id="50833761_41240286_260162515_41240286" from="41240286" to="260162515" numLanes="1" speed="13.89" />
	<edge id="241092241_2492014459_33965032_2492014459" from="2492014459" to="33965024" numLanes="1" speed="13.89" />
	<edge id="241092241_2492014459_33965032_33965024" from="33965024" to="2492014460" numLanes="1" speed="13.89" />
	<edge id="241092241_2492014459_33965032_2492014460" from="2492014460" to="33965020" numLanes="1" speed="13.89" />
	<edge id="241092241_2492014459_33965032_33965020" from="33965020" to="362755578" numLanes="1" speed="13.89" />
	<edge id="241092241_2492014459_33965032_362755578" from="362755578" to="33965026" numLanes="1" speed="13.89" />
	<edge id="241092241_2492014459_33965032_33965026" from="33965026" to="33965030" numLanes="1" speed="13.89" />
	<edge id="241092241_2492014459_33965032_33965030" from="33965030" to="33965032" numLanes="1" speed="13.89" />
	<edge id="34621021_402340569_402340570_402340569" from="402340569" to="402340570" numLanes="1" speed="8.33" />
	<edge id="24726690_157554788_75670646_157554788" from="157554788" to="75670646" numLanes="1" speed="8.33" />
	<edge id="8162645_1169625246_29859948_1169625246" from="1169625246" to="29859948" numLanes="1" speed="8.33" />
	<edge id="62710235_49395257_183974718_49395257" from="49395257" to="1986777785" numLanes="2" speed="36.11" />
	<edge id="62710235_49395257_183974718_1986777785" from="1986777785" to="60635399" numLanes="2" speed="36.11" />
	<edge id="62710235_49395257_183974718_60635399" from="60635399" to="2450938912" numLanes="2" speed="36.11" />
	<edge id="62710235_49395257_183974718_2450938912" from="2450938912" to="267925338" numLanes="2" speed="36.11" />
	<edge id="62710235_49395257_183974718_267925338" from="267925338" to="40050015" numLanes="2" speed="36.11" />
	<edge id="62710235_49395257_183974718_40050015" from="40050015" to="267926274" numLanes="2" speed="36.11" />
	<edge id="62710235_49395257_183974718_267926274" from="267926274" to="267926276" numLanes="2" speed="36.11" />
	<edge id="62710235_49395257_183974718_267926276" from="267926276" to="267926476" numLanes="2" speed="36.11" />
	<edge id="62710235_49395257_183974718_267926476" from="267926476" to="267926622" numLanes="2" speed="36.11" />
	<edge id="62710235_49395257_183974718_267926622" from="267926622" to="267926922" numLanes="2" speed="36.11" />
	<edge id="62710235_49395257_183974718_267926922" from="267926922" to="183974718" numLanes="2" speed="36.11" />
	<edge id="255782335_157564457_157566050_157564457" from="157564457" to="648293489" numLanes="1" speed="8.33" />
	<edge id="255782335_157564457_157566050_648293489" from="648293489" to="2613392263" numLanes="1" speed="8.33" />
	<edge id="255782335_157564457_157566050_2613392263" from="2613392263" to="2613392270" numLanes="1" speed="8.33" />
	<edge id="255782335_157564457_157566050_2613392270" from="2613392270" to="618499908" numLanes="1" speed="8.33" />
	<edge id="255782335_157564457_157566050_618499908" from="618499908" to="157566050" numLanes="1" speed="8.33" />
	<edge id="116570249_866614488_866613702_866614488" from="866614488" to="866614637" numLanes="2" speed="22.22" />
	<edge id="116570249_866614488_866613702_866614637" from="866614637" to="1313885394" numLanes="2" speed="22.22" />
	<edge id="116570249_866614488_866613702_1313885394" from="1313885394" to="866613702" numLanes="2" speed="22.22" />
	<edge id="241594961_33965052_33965050_33965052" from="33965052" to="2506347679" numLanes="1" speed="13.89" />
	<edge id="241594961_33965052_33965050_2506347679" from="2506347679" to="33965050" numLanes="1" speed="13.89" />
	<edge id="241594961_33965052_33965054_33965052" from="33965052" to="33965054" numLanes="1" speed="13.89" />
	<edge id="26386509_27472701_40446866_27472701" from="27472701" to="27472700" numLanes="3" speed="36.11" />
	<edge id="26386509_27472701_40446866_27472700" from="27472700" to="9671195" numLanes="3" speed="36.11" />
	<edge id="26386509_27472701_40446866_9671195" from="9671195" to="59332197" numLanes="3" speed="36.11" />
	<edge id="26386509_27472701_40446866_59332197" from="59332197" to="59332196" numLanes="3" speed="36.11" />
	<edge id="26386509_27472701_40446866_59332196" from="59332196" to="9671197" numLanes="3" speed="36.11" />
	<edge id="26386509_27472701_40446866_9671197" from="9671197" to="27472699" numLanes="3" speed="36.11" />
	<edge id="26386509_27472701_40446866_27472699" from="27472699" to="59332191" numLanes="3" speed="36.11" />
	<edge id="26386509_27472701_40446866_59332191" from="59332191" to="27472698" numLanes="3" speed="36.11" />
	<edge id="26386509_27472701_40446866_27472698" from="27472698" to="29859437" numLanes="3" speed="36.11" />
	<edge id="26386509_27472701_40446866_29859437" from="29859437" to="40446866" numLanes="3" speed="36.11" />
	<edge id="15807872_157575369_158836972_157575369" from="157575369" to="2609450837" numLanes="1" speed="8.33" />
	<edge id="15807872_157575369_158836972_2609450837" from="2609450837" to="158836972" numLanes="1" speed="8.33" />
	<edge id="23995139_260147854_260162509_260147854" from="260147854" to="260162509" numLanes="1" speed="8.33" />
	<edge id="262278114_2679401899_2679401900_2679401899" from="2679401899" to="2679401900" numLanes="1" speed="8.33" />
	<edge id="62710134_49395182_49395257_49395182" from="49395182" to="599826229" numLanes="2" speed="36.11" />
	<edge id="62710134_49395182_49395257_599826229" from="599826229" to="49395257" numLanes="2" speed="36.11" />
	<edge id="45125631_536435868_536435763_536435868" from="536435868" to="536435763" numLanes="1" speed="8.33" />
	<edge id="42859278_536435097_536435191_536435097" from="536435097" to="536435191" numLanes="1" speed="8.33" />
	<edge id="14118745_134684860_134684859_134684860" from="134684860" to="134684859" numLanes="1" speed="8.33" />
	<edge id="15807806_158834451_29768623_158834451" from="158834451" to="29768623" numLanes="1" speed="8.33" />
	<edge id="14121630_134675161_134677206_134675161" from="134675161" to="2689567449" numLanes="1" speed="8.33" />
	<edge id="14121630_134675161_134677206_2689567449" from="2689567449" to="134675159" numLanes="1" speed="8.33" />
	<edge id="14121630_134675161_134677206_134675159" from="134675159" to="2681869011" numLanes="1" speed="8.33" />
	<edge id="14121630_134675161_134677206_2681869011" from="2681869011" to="134677206" numLanes="1" speed="8.33" />
	<edge id="15742045_134698740_134698737_134698740" from="134698740" to="134698737" numLanes="1" speed="8.33" />
	<edge id="14122919_134654653_134652641_134654653" from="134654653" to="134652641" numLanes="1" speed="8.33" />
	<edge id="24212619_262166756_262166748_262166756" from="262166756" to="262166748" numLanes="1" speed="8.33" />
	<edge id="14123326_134684860_134690727_134684860" from="134684860" to="2714283128" numLanes="1" speed="8.33" />
	<edge id="14123326_134684860_134690727_2714283128" from="2714283128" to="134701994" numLanes="1" speed="8.33" />
	<edge id="14123326_134684860_134690727_134701994" from="134701994" to="134690727" numLanes="1" speed="8.33" />
	<edge id="45124587_1870018135_49829212_1870018135" from="1870018135" to="2450179151" numLanes="1" speed="8.33" />
	<edge id="45124587_1870018135_49829212_2450179151" from="2450179151" to="1834751653" numLanes="1" speed="8.33" />
	<edge id="45124587_1870018135_49829212_1834751653" from="1834751653" to="49829451" numLanes="1" speed="8.33" />
	<edge id="45124587_1870018135_49829212_49829451" from="49829451" to="2390003921" numLanes="1" speed="8.33" />
	<edge id="45124587_1870018135_49829212_2390003921" from="2390003921" to="2390003920" numLanes="1" speed="8.33" />
	<edge id="45124587_1870018135_49829212_2390003920" from="2390003920" to="49829212" numLanes="1" speed="8.33" />
	<edge id="241594963_41240283_262166926_41240283" from="41240283" to="41240272" numLanes="1" speed="19.44" />
	<edge id="241594963_41240283_262166926_41240272" from="41240272" to="41240269" numLanes="1" speed="19.44" />
	<edge id="241594963_41240283_262166926_41240269" from="41240269" to="41240266" numLanes="1" speed="19.44" />
	<edge id="241594963_41240283_262166926_41240266" from="41240266" to="262166926" numLanes="1" speed="19.44" />
	<edge id="20135636_212904835_212904836_212904835" from="212904835" to="1640594590" numLanes="1" speed="8.33" />
	<edge id="20135636_212904835_212904836_1640594590" from="1640594590" to="1640594597" numLanes="1" speed="8.33" />
	<edge id="20135636_212904835_212904836_1640594597" from="1640594597" to="212904836" numLanes="1" speed="8.33" />
	<edge id="5563320_41240308_41240350_41240308" from="41240308" to="41240350" numLanes="1" speed="8.33" />
	<edge id="8162645_41240529_1169625246_41240529" from="41240529" to="41240523" numLanes="1" speed="8.33" />
	<edge id="8162645_41240529_1169625246_41240523" from="41240523" to="1169625246" numLanes="1" speed="8.33" />
	<edge id="15808028_158843567_158842717_158843567" from="158843567" to="158843626" numLanes="1" speed="8.33" />
	<edge id="15808028_158843567_158842717_158843626" from="158843626" to="158843957" numLanes="1" speed="8.33" />
	<edge id="15808028_158843567_158842717_158843957" from="158843957" to="158842717" numLanes="1" speed="8.33" />
	<edge id="9659218_75673669_75673671_75673669" from="75673669" to="75673671" numLanes="1" speed="8.33" />
	<edge id="9534263_73652754_73637086_73652754" from="73652754" to="73637086" numLanes="1" speed="8.33" />
	<edge id="14119744_134615476_134645275_134615476" from="134615476" to="134645275" numLanes="1" speed="8.33" />
	<edge id="27108440_134846766_134846765_134846766" from="134846766" to="134846765" numLanes="1" speed="8.33" />
	<edge id="166752304_303184519_75673057_303184519" from="303184519" to="739356830" numLanes="1" speed="19.44" />
	<edge id="166752304_303184519_75673057_739356830" from="739356830" to="75673057" numLanes="1" speed="19.44" />
	<edge id="10475164_394751921_252326343_394751921" from="394751921" to="252326343" numLanes="1" speed="13.89" />
	<edge id="42859345_262182823_262182822_262182823" from="262182823" to="262182822" numLanes="1" speed="8.33" />
	<edge id="24726499_268746480_303180831_268746480" from="268746480" to="303180831" numLanes="1" speed="8.33" />
	<edge id="35389371_29768635_134648896_29768635" from="29768635" to="2696057320" numLanes="1" speed="8.33" />
	<edge id="35389371_29768635_134648896_2696057320" from="2696057320" to="134648899" numLanes="1" speed="8.33" />
	<edge id="35389371_29768635_134648896_134648899" from="134648899" to="134648898" numLanes="1" speed="8.33" />
	<edge id="35389371_29768635_134648896_134648898" from="134648898" to="2694682432" numLanes="1" speed="8.33" />
	<edge id="35389371_29768635_134648896_2694682432" from="2694682432" to="2694682477" numLanes="1" speed="8.33" />
	<edge id="35389371_29768635_134648896_2694682477" from="2694682477" to="134648896" numLanes="1" speed="8.33" />
	<edge id="14118521_134613772_134613770_134613772" from="134613772" to="416902550" numLanes="2" speed="8.33" />
	<edge id="14118521_134613772_134613770_416902550" from="416902550" to="134613770" numLanes="2" speed="8.33" />
	<edge id="15744113_157554190_157554501_157554190" from="157554190" to="157554501" numLanes="1" speed="8.33" />
	<edge id="182927537_1932825769_1932825803_1932825769" from="1932825769" to="1932825803" numLanes="1" speed="8.33" />
	<edge id="14133903_134852545_134851795_134852545" from="134852545" to="2102485080" numLanes="1" speed="8.33" />
	<edge id="14133903_134852545_134851795_2102485080" from="2102485080" to="2102485078" numLanes="1" speed="8.33" />
	<edge id="14133903_134852545_134851795_2102485078" from="2102485078" to="134852542" numLanes="1" speed="8.33" />
	<edge id="14133903_134852545_134851795_134852542" from="134852542" to="2102485076" numLanes="1" speed="8.33" />
	<edge id="14133903_134852545_134851795_2102485076" from="2102485076" to="2102485075" numLanes="1" speed="8.33" />
	<edge id="14133903_134852545_134851795_2102485075" from="2102485075" to="2261272347" numLanes="1" speed="8.33" />
	<edge id="14133903_134852545_134851795_2261272347" from="2261272347" to="2102485074" numLanes="1" speed="8.33" />
	<edge id="14133903_134852545_134851795_2102485074" from="2102485074" to="2261272346" numLanes="1" speed="8.33" />
	<edge id="14133903_134852545_134851795_2261272346" from="2261272346" to="134851795" numLanes="1" speed="8.33" />
	<edge id="179143640_134680818_134675166_134680818" from="134680818" to="134675166" numLanes="1" speed="8.33" />
	<edge id="41223144_75681546_503700364_75681546" from="75681546" to="2621031473" numLanes="1" speed="8.33" />
	<edge id="41223144_75681546_503700364_2621031473" from="2621031473" to="503700364" numLanes="1" speed="8.33" />
	<edge id="5653438_41240746_41240753_41240746" from="41240746" to="2032424247" numLanes="1" speed="8.33" />
	<edge id="5653438_41240746_41240753_2032424247" from="2032424247" to="41240753" numLanes="1" speed="8.33" />
	<edge id="24212619_262166756_262166757_262166756" from="262166756" to="262166757" numLanes="1" speed="8.33" />
	<edge id="23995151_260162573_260162571_260162573" from="260162573" to="260162571" numLanes="1" speed="8.33" />
	<edge id="8162646_41240693_41240741_41240693" from="41240693" to="2032424268" numLanes="1" speed="8.33" />
	<edge id="8162646_41240693_41240741_2032424268" from="2032424268" to="2032424257" numLanes="1" speed="8.33" />
	<edge id="8162646_41240693_41240741_2032424257" from="2032424257" to="2032424254" numLanes="1" speed="8.33" />
	<edge id="8162646_41240693_41240741_2032424254" from="2032424254" to="41240741" numLanes="1" speed="8.33" />
	<edge id="24212621_262166763_262166718_262166763" from="262166763" to="262166718" numLanes="1" speed="8.33" />
	<edge id="14120168_134651314_134647998_134651314" from="134651314" to="134647998" numLanes="1" speed="8.33" />
	<edge id="15240014_1109759311_572281872_1109759311" from="1109759311" to="572281872" numLanes="1" speed="8.33" />
	<edge id="24214224_262182718_262183070_262182718" from="262182718" to="564613922" numLanes="1" speed="8.33" />
	<edge id="24214224_262182718_262183070_564613922" from="564613922" to="262182824" numLanes="1" speed="8.33" />
	<edge id="24214224_262182718_262183070_262182824" from="262182824" to="262182825" numLanes="1" speed="8.33" />
	<edge id="24214224_262182718_262183070_262182825" from="262182825" to="262182826" numLanes="1" speed="8.33" />