<?xml version="1.0" ?>
<!-- Example file which specifies SUMO specific parameters (color and carFollowModel)-->
<routes>
    <vType id="TLPKW" carFollowModel="Krauss" color="green"/>
    <vType id="PKW" carFollowModel="Krauss" color="red"/>
</routes>