<nodes>
	<node id="26704526" x="385769.0487" y="5819239.2898" type="traffic_light" />
	<node id="282745683" x="387897.7006" y="5819540.5356" type="priority" />
	<node id="27011222" x="388057.3760" y="5819608.5809" type="priority" />
	<node id="252864801" x="386783.7415" y="5819425.3647" type="traffic_light" />
	<node id="252864802" x="387061.2061" y="5819446.5237" type="traffic_light" />
	<node id="27011225" x="387986.7994" y="5819582.1521" type="traffic_light" />
	<node id="27011229" x="387975.4850" y="5819524.3789" type="traffic_light" />
	<node id="406584997" x="388696.4746" y="5819601.8622" type="priority" />
	<node id="342813080" x="388098.2894" y="5819491.9718" type="priority" />
	<node id="27011227" x="388031.2756" y="5819608.3985" type="priority" />
	<node id="281787666" x="386179.5737" y="5819328.7194" type="priority" />
	<node id="281787664" x="386187.2911" y="5819340.0243" type="priority" />
	<node id="342813075" x="387981.7114" y="5819574.0004" type="priority" />
	<node id="82654384" x="389138.0391" y="5819628.7594" type="priority" />
	<node id="82654385" x="387199.7540" y="5819461.9707" type="priority" />
	<node id="342813077" x="388004.7713" y="5819597.3758" type="priority" />
	<node id="341364267" x="387467.5925" y="5819501.7131" type="priority" />
	<node id="410846037" x="386536.4359" y="5819415.8413" type="priority" />
	<node id="26870674" x="389849.7514" y="5819702.2590" type="traffic_light" />
	<node id="281787660" x="387960.3012" y="5819555.9733" type="priority" />
	<node id="341364270" x="387468.2091" y="5819484.5174" type="priority" />
	<node id="152533555" x="389399.7680" y="5819643.7184" type="priority" />
	<node id="27011219" x="387930.4756" y="5819543.1241" type="traffic_light" />
	<node id="262454829" x="389862.6799" y="5819703.3036" type="traffic_light" />
	<node id="276365467" x="385985.1334" y="5819369.2625" type="priority" />
	<node id="281787658" x="387973.9473" y="5819542.9309" type="priority" />
	<node id="26704482" x="385805.7291" y="5819337.3642" type="traffic_light" />
	<node id="281787659" x="387942.9920" y="5819548.0678" type="priority" />
	<node id="281787656" x="387947.7654" y="5819525.5471" type="priority" />
	<node id="281787657" x="387961.1792" y="5819518.6748" type="priority" />
	<node id="341364277" x="387353.0443" y="5819474.3673" type="priority" />
	<node id="414959615" x="388733.2690" y="5819587.7842" type="priority" />
	<node id="341364279" x="387101.3172" y="5819452.7544" type="priority" />
	<node id="26938211" x="386060.4331" y="5819406.3140" type="priority" />
	<node id="21487170" x="387983.2338" y="5819503.7153" type="priority" />
	<node id="26938212" x="386078.5358" y="5819423.9427" type="traffic_light" />
	<node id="21487171" x="388014.8613" y="5819603.0985" type="priority" />
	<node id="26938213" x="386120.1943" y="5819439.1208" type="priority" />
	<node id="27537749" x="386770.7336" y="5819424.1964" type="priority" />
	<node id="26938214" x="386152.6295" y="5819435.1731" type="traffic_light" />
	<node id="26938215" x="386183.0643" y="5819417.0060" type="priority" />
	<node id="21677261" x="387061.0978" y="5819465.0876" type="traffic_light" />
	<node id="25661282" x="389893.2016" y="5819655.6138" type="priority" />
	<node id="26938217" x="386201.2618" y="5819377.0676" type="traffic_light" />
	<node id="197687090" x="388089.7948" y="5819484.1761" type="priority" />
	<node id="25661280" x="389865.5280" y="5819683.8439" type="traffic_light" />
	<node id="27011241" x="388008.8154" y="5819477.9146" type="priority" />
	<node id="21487178" x="388160.7607" y="5819558.5475" type="priority" />
	<node id="21487176" x="388059.3727" y="5819469.8820" type="traffic_light" />
	<node id="27537747" x="386705.0856" y="5819434.3162" type="priority" />
	<node id="21487174" x="388112.2469" y="5819516.9133" type="priority" />
	<node id="27537748" x="386769.5893" y="5819440.1915" type="priority" />
	<node id="248919692" x="387108.2228" y="5819453.6858" type="priority" />
	<node id="21487175" x="388079.3223" y="5819475.9804" type="priority" />
	<node id="21487172" x="388042.7846" y="5819609.6711" type="priority" />
	<node id="21487173" x="388107.4397" y="5819572.1617" type="priority" />
	<node id="27011806" x="388115.6675" y="5819535.2963" type="priority" />
	<node id="281788931" x="388113.0395" y="5819558.7471" type="traffic_light" />
	<node id="26738489" x="386571.3913" y="5819405.1946" type="priority" />
	<node id="27537750" x="386708.2637" y="5819419.0864" type="priority" />
	<node id="21487169" x="387978.0147" y="5819562.8569" type="priority" />
	<node id="251150123" x="386036.0774" y="5819377.6027" type="traffic_light" />
	<node id="26938208" x="386117.6988" y="5819306.0764" type="priority" />
	<node id="417709064" x="389529.7190" y="5819654.6844" type="priority" />
	<node id="26938209" x="386145.3304" y="5819308.3608" type="traffic_light" />
	<node id="26870692" x="389862.4159" y="5819660.4677" type="priority" />
	<node id="251150126" x="386228.8359" y="5819374.2683" type="priority" />
	<node id="251150120" x="386165.3298" y="5819430.1041" type="priority" />
	<node id="26870695" x="389883.0687" y="5819646.0603" type="priority" />
	<node id="272256206" x="386459.3798" y="5819393.6347" type="traffic_light" />
	<node id="197667550" x="386051.6352" y="5819385.3420" type="priority" />
	<node id="26938203" x="386215.0446" y="5819391.4142" type="traffic_light" />
	<node id="595589819" x="387996.6947" y="5819591.5292" type="priority" />
	<node id="414959598" x="388732.2884" y="5819604.6873" type="priority" />
	<node id="26703689" x="389385.9851" y="5819661.3667" type="traffic_light" />
	<node id="26938204" x="386217.3849" y="5819371.1625" type="traffic_light" />
	<node id="299080432" x="388095.8417" y="5819588.0947" type="priority" />
	<node id="27011231" x="388105.2283" y="5819501.8062" type="priority" />
	<node id="21487167" x="386240.6265" y="5819375.9196" type="priority" />
	<node id="27011237" x="387991.6562" y="5819492.0165" type="priority" />
	<node id="21487168" x="386198.9481" y="5819357.2578" type="priority" />
	<node id="313006383" x="386678.9627" y="5819416.4925" type="priority" />
	<node id="299080425" x="388020.0704" y="5819471.9264" type="priority" />
	<node id="299080426" x="388046.0730" y="5819467.5041" type="priority" />
	<node id="423839225" x="386682.9581" y="5819432.1907" type="priority" />
	<node id="423839224" x="386684.8129" y="5819417.2808" type="priority" />
	<node id="272365223" x="386355.9688" y="5819385.2607" type="priority" />
	<node id="26704447" x="386690.0943" y="5819433.1050" type="traffic_light" />
	<node id="26704448" x="386692.4819" y="5819417.7488" type="traffic_light" />
	<node id="27011305" x="387919.7194" y="5819526.0997" type="traffic_light" />
	<node id="27011308" x="387217.5285" y="5819463.4754" type="traffic_light" />
	<node id="406585016" x="388700.9574" y="5819586.1257" type="priority" />
	<node id="21487147" x="386069.8993" y="5819324.0802" type="priority" />
	<node id="21487148" x="386176.2633" y="5819424.3861" type="priority" />
	<node id="21668930" x="386782.5552" y="5819441.3051" type="traffic_light" />
	<node id="26703089" x="388070.6506" y="5819604.8279" type="priority" />
	<node id="428788320" x="386449.5596" y="5819406.9822" type="priority" />
	<node id="564738832" x="389322.3810" y="5819642.9737" type="priority" />
	<node id="26938222" x="386044.9436" y="5819386.3322" type="priority" />
	<node id="26938223" x="386015.3530" y="5819372.1981" type="priority" />
	<node id="251106773" x="386050.3826" y="5819360.6780" type="traffic_light" />
	<node id="271749621" x="387669.7476" y="5819520.0412" type="priority" />
	<node id="391498256" x="389660.4114" y="5819665.7485" type="priority" />
	<node id="21487145" x="386196.5535" y="5819398.8433" type="priority" />
	<node id="27011259" x="388134.1881" y="5819562.0698" type="traffic_light" />
	<node id="21487146" x="386162.7498" y="5819314.6996" type="priority" />
	<node id="21487143" x="386068.4618" y="5819415.8198" type="priority" />
	<node id="21487144" x="386128.4497" y="5819438.5283" type="priority" />
	<node id="27011256" x="388138.9120" y="5819537.3471" type="traffic_light" />
	<node id="21487142" x="386056.8128" y="5819398.3638" type="priority" />
	<node id="26914395" x="389879.9908" y="5819664.0563" type="priority" />
	<node id="26938220" x="386040.1994" y="5819356.0408" type="priority" />
	<node id="415838100" x="386229.3239" y="5819389.7249" type="priority" />
	<node id="26938221" x="386050.0296" y="5819372.9382" type="priority" />
	<node id="251106770" x="386095.7038" y="5819434.3710" type="priority" />
	<node id="411091943" x="386385.1147" y="5819401.9332" type="priority" />
	<node id="270964379" x="388465.9664" y="5819583.5700" type="priority" />
	<node id="26938219" x="386018.2209" y="5819356.8526" type="traffic_light" />
	<node id="26873451" x="388163.0786" y="5819542.9156" type="priority" />
	<node id="26873454" x="389852.2623" y="5819681.9945" type="traffic_light" />
	<node id="26873453" x="389385.3417" y="5819642.7978" type="traffic_light" />
	<node id="26704628" x="386109.0025" y="5819438.4017" type="priority" />
	<node id="249734328" x="389367.8344" y="5819640.7228" type="priority" />
	<node id="27011842" x="388124.6897" y="5819526.3660" type="priority" />
	<node id="415838099" x="386457.8031" y="5819407.6257" type="traffic_light" />
	<node id="276365492" x="385945.8960" y="5819365.9695" type="priority" />
	<node id="540312558" x="387935.0239" y="5819527.3853" type="priority" />
	<node id="408194217" x="386494.4975" y="5819411.3824" type="priority" />
	<node id="26703663" x="388032.6080" y="5819469.1806" type="priority" />
	<node id="265786533" x="386831.2214" y="5819428.7410" type="priority" />
	<node id="27423744" x="387998.8145" y="5819485.0091" type="priority" />
	<node id="213045012" x="388678.7868" y="5819601.1291" type="priority" />
	<node id="281167110" x="389666.8850" y="5819687.0236" type="priority" />
	<node id="290001020" x="386290.7084" y="5819394.5313" type="priority" />
	<node id="408194194" x="386469.4683" y="5819394.5025" type="priority" />
	<node id="408194196" x="386671.4722" y="5819430.1974" type="priority" />
	<node id="27011311" x="387216.3760" y="5819479.4706" type="traffic_light" />
	<node id="489741699" x="389528.3172" y="5819674.1006" type="priority" />
	<node id="408194192" x="386468.0087" y="5819408.5688" type="priority" />
	<node id="26703090" x="388084.0285" y="5819597.2780" type="priority" />
	<node id="270964315" x="389135.8746" y="5819640.2032" type="priority" />
	<node id="270964435" x="388718.3553" y="5819603.6796" type="priority" />
	<node id="26785753" x="386056.3378" y="5819346.4180" type="priority" />
	<node id="428788319" x="386450.7683" y="5819392.9329" type="priority" />
	<node id="270964434" x="388853.0292" y="5819613.4968" type="priority" />
	<node id="26785752" x="386060.7488" y="5819337.2794" type="priority" />
	<node id="26704584" x="386091.9050" y="5819311.5836" type="priority" />
	<node id="270964430" x="388958.5396" y="5819623.6782" type="priority" />
	<node id="26875018" x="385799.6530" y="5819353.1074" type="traffic_light" />
</nodes>
